version 2
run v1-238-20171208-10:14:05-11303
attr configname v1
attr cwmax 2048
attr cwmin 64
attr datetime 20171208-10:14:05
attr experiment v1
attr inifile omnetpp.ini
attr iterationvars "$cwmin=64, $cwmax=2048, $slotlength=95, $txPower=15.85"
attr iterationvars2 "$cwmin=64, $cwmax=2048, $slotlength=95, $txPower=15.85, $repetition=0"
attr measurement "$cwmin=64, $cwmax=2048, $slotlength=95, $txPower=15.85"
attr network RSUExampleScenario2
attr processid 11303
attr repetition 0
attr replication #0
attr resultdir results
attr runnumber 238
attr seedset 238
attr slotlength 95
attr txPower 15.85
param **.coreDebug true
param **.debug true
param *.**.nic.mac1609_4.bitrate 6Mbps
param *.**.nic.mac1609_4.cwmax_ "${cwmax=2048, 4096}"
param *.**.nic.mac1609_4.cwmin_ ${cwmin=64}
param *.**.nic.mac1609_4.slotlength_ "${slotlength=5..100 step 5}ms"
param *.**.nic.mac1609_4.txPower "${txPower=1.26, 2.51, 3.98, 10, 15.85, 25.12, 50.12, 100, 251.19, 501.19, 794.33, 1258.93, 1584.89}mW"
param *.**.nic.mac1609_4.useServiceChannel false
param *.**.nic.phy80211p.analogueModels "xmldoc(\"config.xml\")"
param *.**.nic.phy80211p.decider "xmldoc(\"config.xml\")"
param *.**.nic.phy80211p.sensitivity -89dBm
param *.**.nic.phy80211p.thermalNoise -110dBm
param *.**.nic.phy80211p.usePropagationDelay true
param *.**.nic.phy80211p.useThermalNoise true
param *.annotations.draw false
param *.connectionManager.alpha 2.0
param *.connectionManager.carrierFrequency "5.890e9 Hz"
param *.connectionManager.drawMaxIntfDist false
param *.connectionManager.maxInterfDist 2600m
param *.connectionManager.pMax 20mW
param *.connectionManager.sat -89dBm
param *.connectionManager.sendDirect true
param *.manager.autoShutdown true
param *.manager.host "\"localhost\""
param *.manager.launchConfig "xmldoc(\"osm.launchd.xml\")"
param *.manager.margin 25
param *.manager.moduleDisplayString "\"\""
param *.manager.moduleName "\"node\""
param *.manager.moduleType "\"org.car2x.veins.nodes.Car\""
param *.manager.port 9999
param *.manager.updateInterval 1s
param *.node[*].appl.beaconInterval "0.1 s"
param *.node[*].appl.beaconLengthBits "3960 bit"
param *.node[*].appl.beaconPriority 3
param *.node[*].appl.dataLengthBits "3960 bit"
param *.node[*].appl.dataOnSch false
param *.node[*].appl.dataPriority 2
param *.node[*].appl.debug false
param *.node[*].appl.headerLength "80 bit"
param *.node[*].appl.maxOffset "0.005 s"
param *.node[*].appl.sendBeacons true
param *.node[*].appl.sendData false
param *.node[*].applType "\"TraCIDemo11p\""
param *.node[*].mobilityType "\"TraCIMobility\""
param *.node[*].mobilityType.debug true
param *.node[*].veinsmobility.x 0
param *.node[*].veinsmobility.y 0
param *.node[*].veinsmobility.z 1.895
param *.node[*].veinsmobilityType "\"org.car2x.veins.modules.mobility.traci.TraCIMobility\""
param *.node[*].veinsmobilityType.debug true
param *.obstacles.debug false
param *.playgroundSizeX 2000m
param *.playgroundSizeY 2000m
param *.playgroundSizeZ 50m
param *.world.use2D false
param *.world.useTorus false

scalar . 	cwmax 	2048
scalar . 	cwmin 	64
scalar . 	slotlength 	95
scalar . 	txPower 	15.85
scalar RSUExampleScenario2.node[6].nic.mac1609_4 	TotalLostPackets 	0
scalar RSUExampleScenario2.node[6].nic.mac1609_4 	delayMedio 	0.000722441572
scalar RSUExampleScenario2.node[6].nic.mac1609_4 	throughputMedioBPS 	5669662.6557101
scalar RSUExampleScenario2.node[5].nic.mac1609_4 	TotalLostPackets 	102
scalar RSUExampleScenario2.node[5].nic.mac1609_4 	delayMedio 	0.00547371627
scalar RSUExampleScenario2.node[5].nic.mac1609_4 	throughputMedioBPS 	748303.30953335
scalar RSUExampleScenario2.node[0].nic.mac1609_4 	TotalLostPackets 	642
scalar RSUExampleScenario2.node[0].nic.mac1609_4 	delayMedio 	0.00529255715
scalar RSUExampleScenario2.node[0].nic.mac1609_4 	throughputMedioBPS 	773917.00906168
scalar RSUExampleScenario2.node[14].nic.mac1609_4 	TotalLostPackets 	42
scalar RSUExampleScenario2.node[14].nic.mac1609_4 	delayMedio 	0.007996282151
scalar RSUExampleScenario2.node[14].nic.mac1609_4 	throughputMedioBPS 	512238.05297354
scalar RSUExampleScenario2.node[7].nic.mac1609_4 	TotalLostPackets 	49
scalar RSUExampleScenario2.node[7].nic.mac1609_4 	delayMedio 	0.005328194461
scalar RSUExampleScenario2.node[7].nic.mac1609_4 	throughputMedioBPS 	768740.71130451
scalar RSUExampleScenario2.node[2].nic.mac1609_4 	TotalLostPackets 	412
scalar RSUExampleScenario2.node[2].nic.mac1609_4 	delayMedio 	0.004809482397
scalar RSUExampleScenario2.node[2].nic.mac1609_4 	throughputMedioBPS 	851650.89747338
scalar RSUExampleScenario2.node[8].nic.mac1609_4 	TotalLostPackets 	295
scalar RSUExampleScenario2.node[8].nic.mac1609_4 	delayMedio 	0.005671529652
scalar RSUExampleScenario2.node[8].nic.mac1609_4 	throughputMedioBPS 	722203.75300178
scalar RSUExampleScenario2.node[3].nic.mac1609_4 	TotalLostPackets 	620
scalar RSUExampleScenario2.node[3].nic.mac1609_4 	delayMedio 	0.003791991644
scalar RSUExampleScenario2.node[3].nic.mac1609_4 	throughputMedioBPS 	1080171.1566424
scalar RSUExampleScenario2.node[11].nic.mac1609_4 	TotalLostPackets 	1377
scalar RSUExampleScenario2.node[11].nic.mac1609_4 	delayMedio 	0.006289495082
scalar RSUExampleScenario2.node[11].nic.mac1609_4 	throughputMedioBPS 	651244.64624061
scalar RSUExampleScenario2.node[17].nic.mac1609_4 	TotalLostPackets 	126
scalar RSUExampleScenario2.node[17].nic.mac1609_4 	delayMedio 	0.001660287806
scalar RSUExampleScenario2.node[17].nic.mac1609_4 	throughputMedioBPS 	2467042.1507319
scalar RSUExampleScenario2.node[27].nic.mac1609_4 	TotalLostPackets 	233
scalar RSUExampleScenario2.node[27].nic.mac1609_4 	delayMedio 	0.013164609993
scalar RSUExampleScenario2.node[27].nic.mac1609_4 	throughputMedioBPS 	311137.20818742
scalar RSUExampleScenario2.node[12].nic.mac1609_4 	TotalLostPackets 	1248
scalar RSUExampleScenario2.node[12].nic.mac1609_4 	delayMedio 	0.006074897192
scalar RSUExampleScenario2.node[12].nic.mac1609_4 	throughputMedioBPS 	674250.09360293
scalar RSUExampleScenario2.node[18].nic.mac1609_4 	TotalLostPackets 	426
scalar RSUExampleScenario2.node[18].nic.mac1609_4 	delayMedio 	0.003389860008
scalar RSUExampleScenario2.node[18].nic.mac1609_4 	throughputMedioBPS 	1208309.4849831
scalar RSUExampleScenario2.node[22].nic.mac1609_4 	TotalLostPackets 	747
scalar RSUExampleScenario2.node[22].nic.mac1609_4 	delayMedio 	0.004588736423
scalar RSUExampleScenario2.node[22].nic.mac1609_4 	throughputMedioBPS 	892620.45626178
scalar RSUExampleScenario2.node[28].nic.mac1609_4 	TotalLostPackets 	594
scalar RSUExampleScenario2.node[28].nic.mac1609_4 	delayMedio 	0.006505864619
scalar RSUExampleScenario2.node[28].nic.mac1609_4 	throughputMedioBPS 	629585.80298878
scalar RSUExampleScenario2.node[33].nic.mac1609_4 	TotalLostPackets 	51
scalar RSUExampleScenario2.node[33].nic.mac1609_4 	delayMedio 	0.000722397438
scalar RSUExampleScenario2.node[33].nic.mac1609_4 	throughputMedioBPS 	5670009.0361081
scalar RSUExampleScenario2.node[1].nic.mac1609_4 	TotalLostPackets 	620
scalar RSUExampleScenario2.node[1].nic.mac1609_4 	delayMedio 	0.003733780257
scalar RSUExampleScenario2.node[1].nic.mac1609_4 	throughputMedioBPS 	1097011.5320764
scalar RSUExampleScenario2.node[29].nic.mac1609_4 	TotalLostPackets 	52
scalar RSUExampleScenario2.node[29].nic.mac1609_4 	delayMedio 	0.01092522235
scalar RSUExampleScenario2.node[29].nic.mac1609_4 	throughputMedioBPS 	374912.27810676
scalar RSUExampleScenario2.node[34].nic.mac1609_4 	TotalLostPackets 	142
scalar RSUExampleScenario2.node[34].nic.mac1609_4 	delayMedio 	0.000782313696
scalar RSUExampleScenario2.node[34].nic.mac1609_4 	throughputMedioBPS 	5235751.3661355
scalar RSUExampleScenario2.node[9].nic.mac1609_4 	TotalLostPackets 	216
scalar RSUExampleScenario2.node[9].nic.mac1609_4 	delayMedio 	0.004290134053
scalar RSUExampleScenario2.node[9].nic.mac1609_4 	throughputMedioBPS 	954748.72088658
scalar RSUExampleScenario2.node[15].nic.mac1609_4 	TotalLostPackets 	888
scalar RSUExampleScenario2.node[15].nic.mac1609_4 	delayMedio 	0.006555871933
scalar RSUExampleScenario2.node[15].nic.mac1609_4 	throughputMedioBPS 	624783.40666551
scalar RSUExampleScenario2.node[20].nic.mac1609_4 	TotalLostPackets 	0
scalar RSUExampleScenario2.node[20].nic.mac1609_4 	delayMedio 	0.002482541164
scalar RSUExampleScenario2.node[20].nic.mac1609_4 	throughputMedioBPS 	1649922.2891882
scalar RSUExampleScenario2.node[23].nic.mac1609_4 	TotalLostPackets 	929
scalar RSUExampleScenario2.node[23].nic.mac1609_4 	delayMedio 	0.003066567163
scalar RSUExampleScenario2.node[23].nic.mac1609_4 	throughputMedioBPS 	1335695.5128676
scalar RSUExampleScenario2.node[25].nic.mac1609_4 	TotalLostPackets 	245
scalar RSUExampleScenario2.node[25].nic.mac1609_4 	delayMedio 	0.002532939676
scalar RSUExampleScenario2.node[25].nic.mac1609_4 	throughputMedioBPS 	1617093.3869954
scalar RSUExampleScenario2.node[4].nic.mac1609_4 	TotalLostPackets 	680
scalar RSUExampleScenario2.node[4].nic.mac1609_4 	delayMedio 	0.003777582507
scalar RSUExampleScenario2.node[4].nic.mac1609_4 	throughputMedioBPS 	1084291.3405328
scalar RSUExampleScenario2.node[19].nic.mac1609_4 	TotalLostPackets 	845
scalar RSUExampleScenario2.node[19].nic.mac1609_4 	delayMedio 	0.004171760743
scalar RSUExampleScenario2.node[19].nic.mac1609_4 	throughputMedioBPS 	981839.62416776
scalar RSUExampleScenario2.node[21].nic.mac1609_4 	TotalLostPackets 	138
scalar RSUExampleScenario2.node[21].nic.mac1609_4 	delayMedio 	0.002127670681
scalar RSUExampleScenario2.node[21].nic.mac1609_4 	throughputMedioBPS 	1925109.951022
scalar RSUExampleScenario2.node[24].nic.mac1609_4 	TotalLostPackets 	0
scalar RSUExampleScenario2.node[24].nic.mac1609_4 	delayMedio 	0.001942508176
scalar RSUExampleScenario2.node[24].nic.mac1609_4 	throughputMedioBPS 	2108614.0333473
scalar RSUExampleScenario2.node[26].nic.mac1609_4 	TotalLostPackets 	696
scalar RSUExampleScenario2.node[26].nic.mac1609_4 	delayMedio 	0.004155380057
scalar RSUExampleScenario2.node[26].nic.mac1609_4 	throughputMedioBPS 	985710.07799101
scalar RSUExampleScenario2.node[30].nic.mac1609_4 	TotalLostPackets 	94
scalar RSUExampleScenario2.node[30].nic.mac1609_4 	delayMedio 	0.002067358453
scalar RSUExampleScenario2.node[30].nic.mac1609_4 	throughputMedioBPS 	1981272.28201
scalar RSUExampleScenario2.node[31].nic.mac1609_4 	TotalLostPackets 	23
scalar RSUExampleScenario2.node[31].nic.mac1609_4 	delayMedio 	0.014948312421
scalar RSUExampleScenario2.node[31].nic.mac1609_4 	throughputMedioBPS 	274010.86387012
scalar RSUExampleScenario2.node[32].nic.mac1609_4 	TotalLostPackets 	20
scalar RSUExampleScenario2.node[32].nic.mac1609_4 	delayMedio 	0.010496205152
scalar RSUExampleScenario2.node[32].nic.mac1609_4 	throughputMedioBPS 	390236.27498531
scalar RSUExampleScenario2.node[35].nic.mac1609_4 	TotalLostPackets 	68
scalar RSUExampleScenario2.node[35].nic.mac1609_4 	delayMedio 	0.000722229336
scalar RSUExampleScenario2.node[35].nic.mac1609_4 	throughputMedioBPS 	5671328.7552299
scalar RSUExampleScenario2.node[10].nic.mac1609_4 	TotalLostPackets 	214
scalar RSUExampleScenario2.node[10].nic.mac1609_4 	delayMedio 	0.006003913568
scalar RSUExampleScenario2.node[10].nic.mac1609_4 	throughputMedioBPS 	682221.67983976
scalar RSUExampleScenario2.node[13].nic.mac1609_4 	TotalLostPackets 	1368
scalar RSUExampleScenario2.node[13].nic.mac1609_4 	delayMedio 	0.006335493147
scalar RSUExampleScenario2.node[13].nic.mac1609_4 	throughputMedioBPS 	646516.36497021
scalar RSUExampleScenario2.node[16].nic.mac1609_4 	TotalLostPackets 	305
scalar RSUExampleScenario2.node[16].nic.mac1609_4 	delayMedio 	0.005651236014
scalar RSUExampleScenario2.node[16].nic.mac1609_4 	throughputMedioBPS 	724797.19296484
