version 2
run v1-226-20171208-09:18:02-11303
attr configname v1
attr cwmax 2048
attr cwmin 64
attr datetime 20171208-09:18:02
attr experiment v1
attr inifile omnetpp.ini
attr iterationvars "$cwmin=64, $cwmax=2048, $slotlength=90, $txPower=25.12"
attr iterationvars2 "$cwmin=64, $cwmax=2048, $slotlength=90, $txPower=25.12, $repetition=0"
attr measurement "$cwmin=64, $cwmax=2048, $slotlength=90, $txPower=25.12"
attr network RSUExampleScenario2
attr processid 11303
attr repetition 0
attr replication #0
attr resultdir results
attr runnumber 226
attr seedset 226
attr slotlength 90
attr txPower 25.12
param **.coreDebug true
param **.debug true
param *.**.nic.mac1609_4.bitrate 6Mbps
param *.**.nic.mac1609_4.cwmax_ "${cwmax=2048, 4096}"
param *.**.nic.mac1609_4.cwmin_ ${cwmin=64}
param *.**.nic.mac1609_4.slotlength_ "${slotlength=5..100 step 5}ms"
param *.**.nic.mac1609_4.txPower "${txPower=1.26, 2.51, 3.98, 10, 15.85, 25.12, 50.12, 100, 251.19, 501.19, 794.33, 1258.93, 1584.89}mW"
param *.**.nic.mac1609_4.useServiceChannel false
param *.**.nic.phy80211p.analogueModels "xmldoc(\"config.xml\")"
param *.**.nic.phy80211p.decider "xmldoc(\"config.xml\")"
param *.**.nic.phy80211p.sensitivity -89dBm
param *.**.nic.phy80211p.thermalNoise -110dBm
param *.**.nic.phy80211p.usePropagationDelay true
param *.**.nic.phy80211p.useThermalNoise true
param *.annotations.draw false
param *.connectionManager.alpha 2.0
param *.connectionManager.carrierFrequency "5.890e9 Hz"
param *.connectionManager.drawMaxIntfDist false
param *.connectionManager.maxInterfDist 2600m
param *.connectionManager.pMax 20mW
param *.connectionManager.sat -89dBm
param *.connectionManager.sendDirect true
param *.manager.autoShutdown true
param *.manager.host "\"localhost\""
param *.manager.launchConfig "xmldoc(\"osm.launchd.xml\")"
param *.manager.margin 25
param *.manager.moduleDisplayString "\"\""
param *.manager.moduleName "\"node\""
param *.manager.moduleType "\"org.car2x.veins.nodes.Car\""
param *.manager.port 9999
param *.manager.updateInterval 1s
param *.node[*].appl.beaconInterval "0.1 s"
param *.node[*].appl.beaconLengthBits "3960 bit"
param *.node[*].appl.beaconPriority 3
param *.node[*].appl.dataLengthBits "3960 bit"
param *.node[*].appl.dataOnSch false
param *.node[*].appl.dataPriority 2
param *.node[*].appl.debug false
param *.node[*].appl.headerLength "80 bit"
param *.node[*].appl.maxOffset "0.005 s"
param *.node[*].appl.sendBeacons true
param *.node[*].appl.sendData false
param *.node[*].applType "\"TraCIDemo11p\""
param *.node[*].mobilityType "\"TraCIMobility\""
param *.node[*].mobilityType.debug true
param *.node[*].veinsmobility.x 0
param *.node[*].veinsmobility.y 0
param *.node[*].veinsmobility.z 1.895
param *.node[*].veinsmobilityType "\"org.car2x.veins.modules.mobility.traci.TraCIMobility\""
param *.node[*].veinsmobilityType.debug true
param *.obstacles.debug false
param *.playgroundSizeX 2000m
param *.playgroundSizeY 2000m
param *.playgroundSizeZ 50m
param *.world.use2D false
param *.world.useTorus false

scalar . 	cwmax 	2048
scalar . 	cwmin 	64
scalar . 	slotlength 	90
scalar . 	txPower 	25.12
scalar RSUExampleScenario2.node[6].nic.mac1609_4 	TotalLostPackets 	0
scalar RSUExampleScenario2.node[6].nic.mac1609_4 	delayMedio 	0.00072247735
scalar RSUExampleScenario2.node[6].nic.mac1609_4 	throughputMedioBPS 	5669381.8821866
scalar RSUExampleScenario2.node[5].nic.mac1609_4 	TotalLostPackets 	1
scalar RSUExampleScenario2.node[5].nic.mac1609_4 	delayMedio 	0.004651246965
scalar RSUExampleScenario2.node[5].nic.mac1609_4 	throughputMedioBPS 	880624.063013
scalar RSUExampleScenario2.node[0].nic.mac1609_4 	TotalLostPackets 	426
scalar RSUExampleScenario2.node[0].nic.mac1609_4 	delayMedio 	0.004015884821
scalar RSUExampleScenario2.node[0].nic.mac1609_4 	throughputMedioBPS 	1019949.570932
scalar RSUExampleScenario2.node[14].nic.mac1609_4 	TotalLostPackets 	201
scalar RSUExampleScenario2.node[14].nic.mac1609_4 	delayMedio 	0.005151383323
scalar RSUExampleScenario2.node[14].nic.mac1609_4 	throughputMedioBPS 	795126.22988037
scalar RSUExampleScenario2.node[7].nic.mac1609_4 	TotalLostPackets 	3
scalar RSUExampleScenario2.node[7].nic.mac1609_4 	delayMedio 	0.006095892588
scalar RSUExampleScenario2.node[7].nic.mac1609_4 	throughputMedioBPS 	671927.84989404
scalar RSUExampleScenario2.node[2].nic.mac1609_4 	TotalLostPackets 	624
scalar RSUExampleScenario2.node[2].nic.mac1609_4 	delayMedio 	0.006955296533
scalar RSUExampleScenario2.node[2].nic.mac1609_4 	throughputMedioBPS 	588903.71968929
scalar RSUExampleScenario2.node[8].nic.mac1609_4 	TotalLostPackets 	268
scalar RSUExampleScenario2.node[8].nic.mac1609_4 	delayMedio 	0.00776445455
scalar RSUExampleScenario2.node[8].nic.mac1609_4 	throughputMedioBPS 	527532.22699807
scalar RSUExampleScenario2.node[3].nic.mac1609_4 	TotalLostPackets 	574
scalar RSUExampleScenario2.node[3].nic.mac1609_4 	delayMedio 	0.005749092439
scalar RSUExampleScenario2.node[3].nic.mac1609_4 	throughputMedioBPS 	712460.27852043
scalar RSUExampleScenario2.node[11].nic.mac1609_4 	TotalLostPackets 	957
scalar RSUExampleScenario2.node[11].nic.mac1609_4 	delayMedio 	0.007607384235
scalar RSUExampleScenario2.node[11].nic.mac1609_4 	throughputMedioBPS 	538424.23009109
scalar RSUExampleScenario2.node[17].nic.mac1609_4 	TotalLostPackets 	156
scalar RSUExampleScenario2.node[17].nic.mac1609_4 	delayMedio 	0.004904747596
scalar RSUExampleScenario2.node[17].nic.mac1609_4 	throughputMedioBPS 	835109.23233932
scalar RSUExampleScenario2.node[27].nic.mac1609_4 	TotalLostPackets 	21
scalar RSUExampleScenario2.node[27].nic.mac1609_4 	delayMedio 	0.009990438341
scalar RSUExampleScenario2.node[27].nic.mac1609_4 	throughputMedioBPS 	409992.02040575
scalar RSUExampleScenario2.node[12].nic.mac1609_4 	TotalLostPackets 	942
scalar RSUExampleScenario2.node[12].nic.mac1609_4 	delayMedio 	0.007588056107
scalar RSUExampleScenario2.node[12].nic.mac1609_4 	throughputMedioBPS 	539795.69233876
scalar RSUExampleScenario2.node[18].nic.mac1609_4 	TotalLostPackets 	432
scalar RSUExampleScenario2.node[18].nic.mac1609_4 	delayMedio 	0.00412929666
scalar RSUExampleScenario2.node[18].nic.mac1609_4 	throughputMedioBPS 	991936.48140621
scalar RSUExampleScenario2.node[22].nic.mac1609_4 	TotalLostPackets 	511
scalar RSUExampleScenario2.node[22].nic.mac1609_4 	delayMedio 	0.006821874184
scalar RSUExampleScenario2.node[22].nic.mac1609_4 	throughputMedioBPS 	600421.51018728
scalar RSUExampleScenario2.node[28].nic.mac1609_4 	TotalLostPackets 	453
scalar RSUExampleScenario2.node[28].nic.mac1609_4 	delayMedio 	0.007244571361
scalar RSUExampleScenario2.node[28].nic.mac1609_4 	throughputMedioBPS 	565388.86786453
scalar RSUExampleScenario2.node[33].nic.mac1609_4 	TotalLostPackets 	0
scalar RSUExampleScenario2.node[33].nic.mac1609_4 	delayMedio 	0.000842152719
scalar RSUExampleScenario2.node[33].nic.mac1609_4 	throughputMedioBPS 	4863725.9098986
scalar RSUExampleScenario2.node[1].nic.mac1609_4 	TotalLostPackets 	561
scalar RSUExampleScenario2.node[1].nic.mac1609_4 	delayMedio 	0.005654745917
scalar RSUExampleScenario2.node[1].nic.mac1609_4 	throughputMedioBPS 	724347.31110107
scalar RSUExampleScenario2.node[29].nic.mac1609_4 	TotalLostPackets 	0
scalar RSUExampleScenario2.node[29].nic.mac1609_4 	delayMedio 	0.008777634632
scalar RSUExampleScenario2.node[29].nic.mac1609_4 	throughputMedioBPS 	466640.52125477
scalar RSUExampleScenario2.node[34].nic.mac1609_4 	TotalLostPackets 	16
scalar RSUExampleScenario2.node[34].nic.mac1609_4 	delayMedio 	0.000795870049
scalar RSUExampleScenario2.node[34].nic.mac1609_4 	throughputMedioBPS 	5146568.8457794
scalar RSUExampleScenario2.node[9].nic.mac1609_4 	TotalLostPackets 	263
scalar RSUExampleScenario2.node[9].nic.mac1609_4 	delayMedio 	0.005551993143
scalar RSUExampleScenario2.node[9].nic.mac1609_4 	throughputMedioBPS 	737753.07253265
scalar RSUExampleScenario2.node[15].nic.mac1609_4 	TotalLostPackets 	180
scalar RSUExampleScenario2.node[15].nic.mac1609_4 	delayMedio 	0.008042479681
scalar RSUExampleScenario2.node[15].nic.mac1609_4 	throughputMedioBPS 	509295.66038317
scalar RSUExampleScenario2.node[20].nic.mac1609_4 	TotalLostPackets 	68
scalar RSUExampleScenario2.node[20].nic.mac1609_4 	delayMedio 	0.003186208431
scalar RSUExampleScenario2.node[20].nic.mac1609_4 	throughputMedioBPS 	1285540.5064736
scalar RSUExampleScenario2.node[23].nic.mac1609_4 	TotalLostPackets 	698
scalar RSUExampleScenario2.node[23].nic.mac1609_4 	delayMedio 	0.005822764876
scalar RSUExampleScenario2.node[23].nic.mac1609_4 	throughputMedioBPS 	703445.88643039
scalar RSUExampleScenario2.node[25].nic.mac1609_4 	TotalLostPackets 	169
scalar RSUExampleScenario2.node[25].nic.mac1609_4 	delayMedio 	0.005394048466
scalar RSUExampleScenario2.node[25].nic.mac1609_4 	throughputMedioBPS 	759355.43135428
scalar RSUExampleScenario2.node[4].nic.mac1609_4 	TotalLostPackets 	579
scalar RSUExampleScenario2.node[4].nic.mac1609_4 	delayMedio 	0.005869656319
scalar RSUExampleScenario2.node[4].nic.mac1609_4 	throughputMedioBPS 	697826.20602097
scalar RSUExampleScenario2.node[19].nic.mac1609_4 	TotalLostPackets 	349
scalar RSUExampleScenario2.node[19].nic.mac1609_4 	delayMedio 	0.006779930555
scalar RSUExampleScenario2.node[19].nic.mac1609_4 	throughputMedioBPS 	604135.98144461
scalar RSUExampleScenario2.node[21].nic.mac1609_4 	TotalLostPackets 	274
scalar RSUExampleScenario2.node[21].nic.mac1609_4 	delayMedio 	0.005014149973
scalar RSUExampleScenario2.node[21].nic.mac1609_4 	throughputMedioBPS 	816888.21075314
scalar RSUExampleScenario2.node[24].nic.mac1609_4 	TotalLostPackets 	82
scalar RSUExampleScenario2.node[24].nic.mac1609_4 	delayMedio 	0.003301863704
scalar RSUExampleScenario2.node[24].nic.mac1609_4 	throughputMedioBPS 	1240511.5312456
scalar RSUExampleScenario2.node[26].nic.mac1609_4 	TotalLostPackets 	403
scalar RSUExampleScenario2.node[26].nic.mac1609_4 	delayMedio 	0.007153498996
scalar RSUExampleScenario2.node[26].nic.mac1609_4 	throughputMedioBPS 	572586.92600263
scalar RSUExampleScenario2.node[30].nic.mac1609_4 	TotalLostPackets 	132
scalar RSUExampleScenario2.node[30].nic.mac1609_4 	delayMedio 	0.006077888095
scalar RSUExampleScenario2.node[30].nic.mac1609_4 	throughputMedioBPS 	673918.29791591
scalar RSUExampleScenario2.node[31].nic.mac1609_4 	TotalLostPackets 	0
scalar RSUExampleScenario2.node[31].nic.mac1609_4 	delayMedio 	0.011147312999
scalar RSUExampleScenario2.node[31].nic.mac1609_4 	throughputMedioBPS 	367442.80888522
scalar RSUExampleScenario2.node[32].nic.mac1609_4 	TotalLostPackets 	83
scalar RSUExampleScenario2.node[32].nic.mac1609_4 	delayMedio 	0.000832419703
scalar RSUExampleScenario2.node[32].nic.mac1609_4 	throughputMedioBPS 	4920594.7248397
scalar RSUExampleScenario2.node[35].nic.mac1609_4 	TotalLostPackets 	30
scalar RSUExampleScenario2.node[35].nic.mac1609_4 	delayMedio 	0.000815289547
scalar RSUExampleScenario2.node[35].nic.mac1609_4 	throughputMedioBPS 	5023981.9876021
scalar RSUExampleScenario2.node[10].nic.mac1609_4 	TotalLostPackets 	106
scalar RSUExampleScenario2.node[10].nic.mac1609_4 	delayMedio 	0.006042174066
scalar RSUExampleScenario2.node[10].nic.mac1609_4 	throughputMedioBPS 	677901.68822701
scalar RSUExampleScenario2.node[13].nic.mac1609_4 	TotalLostPackets 	953
scalar RSUExampleScenario2.node[13].nic.mac1609_4 	delayMedio 	0.00743014407
scalar RSUExampleScenario2.node[13].nic.mac1609_4 	throughputMedioBPS 	551267.91102547
scalar RSUExampleScenario2.node[16].nic.mac1609_4 	TotalLostPackets 	192
scalar RSUExampleScenario2.node[16].nic.mac1609_4 	delayMedio 	0.005451721804
scalar RSUExampleScenario2.node[16].nic.mac1609_4 	throughputMedioBPS 	751322.26974559
