version 2
run v1-384-20171208-21:30:14-11303
attr configname v1
attr cwmax 4096
attr cwmin 64
attr datetime 20171208-21:30:14
attr experiment v1
attr inifile omnetpp.ini
attr iterationvars "$cwmin=64, $cwmax=4096, $slotlength=50, $txPower=100"
attr iterationvars2 "$cwmin=64, $cwmax=4096, $slotlength=50, $txPower=100, $repetition=0"
attr measurement "$cwmin=64, $cwmax=4096, $slotlength=50, $txPower=100"
attr network RSUExampleScenario2
attr processid 11303
attr repetition 0
attr replication #0
attr resultdir results
attr runnumber 384
attr seedset 384
attr slotlength 50
attr txPower 100
param **.coreDebug true
param **.debug true
param *.**.nic.mac1609_4.bitrate 6Mbps
param *.**.nic.mac1609_4.cwmax_ "${cwmax=2048, 4096}"
param *.**.nic.mac1609_4.cwmin_ ${cwmin=64}
param *.**.nic.mac1609_4.slotlength_ "${slotlength=5..100 step 5}ms"
param *.**.nic.mac1609_4.txPower "${txPower=1.26, 2.51, 3.98, 10, 15.85, 25.12, 50.12, 100, 251.19, 501.19, 794.33, 1258.93, 1584.89}mW"
param *.**.nic.mac1609_4.useServiceChannel false
param *.**.nic.phy80211p.analogueModels "xmldoc(\"config.xml\")"
param *.**.nic.phy80211p.decider "xmldoc(\"config.xml\")"
param *.**.nic.phy80211p.sensitivity -89dBm
param *.**.nic.phy80211p.thermalNoise -110dBm
param *.**.nic.phy80211p.usePropagationDelay true
param *.**.nic.phy80211p.useThermalNoise true
param *.annotations.draw false
param *.connectionManager.alpha 2.0
param *.connectionManager.carrierFrequency "5.890e9 Hz"
param *.connectionManager.drawMaxIntfDist false
param *.connectionManager.maxInterfDist 2600m
param *.connectionManager.pMax 20mW
param *.connectionManager.sat -89dBm
param *.connectionManager.sendDirect true
param *.manager.autoShutdown true
param *.manager.host "\"localhost\""
param *.manager.launchConfig "xmldoc(\"osm.launchd.xml\")"
param *.manager.margin 25
param *.manager.moduleDisplayString "\"\""
param *.manager.moduleName "\"node\""
param *.manager.moduleType "\"org.car2x.veins.nodes.Car\""
param *.manager.port 9999
param *.manager.updateInterval 1s
param *.node[*].appl.beaconInterval "0.1 s"
param *.node[*].appl.beaconLengthBits "3960 bit"
param *.node[*].appl.beaconPriority 3
param *.node[*].appl.dataLengthBits "3960 bit"
param *.node[*].appl.dataOnSch false
param *.node[*].appl.dataPriority 2
param *.node[*].appl.debug false
param *.node[*].appl.headerLength "80 bit"
param *.node[*].appl.maxOffset "0.005 s"
param *.node[*].appl.sendBeacons true
param *.node[*].appl.sendData false
param *.node[*].applType "\"TraCIDemo11p\""
param *.node[*].mobilityType "\"TraCIMobility\""
param *.node[*].mobilityType.debug true
param *.node[*].veinsmobility.x 0
param *.node[*].veinsmobility.y 0
param *.node[*].veinsmobility.z 1.895
param *.node[*].veinsmobilityType "\"org.car2x.veins.modules.mobility.traci.TraCIMobility\""
param *.node[*].veinsmobilityType.debug true
param *.obstacles.debug false
param *.playgroundSizeX 2000m
param *.playgroundSizeY 2000m
param *.playgroundSizeZ 50m
param *.world.use2D false
param *.world.useTorus false

scalar . 	cwmax 	4096
scalar . 	cwmin 	64
scalar . 	slotlength 	50
scalar . 	txPower 	100
scalar RSUExampleScenario2.node[6].nic.mac1609_4 	TotalLostPackets 	0
scalar RSUExampleScenario2.node[6].nic.mac1609_4 	delayMedio 	0.000723259856
scalar RSUExampleScenario2.node[6].nic.mac1609_4 	throughputMedioBPS 	5663248.0939329
scalar RSUExampleScenario2.node[5].nic.mac1609_4 	TotalLostPackets 	0
scalar RSUExampleScenario2.node[5].nic.mac1609_4 	delayMedio 	0.005591700358
scalar RSUExampleScenario2.node[5].nic.mac1609_4 	throughputMedioBPS 	732514.2153336
scalar RSUExampleScenario2.node[0].nic.mac1609_4 	TotalLostPackets 	0
scalar RSUExampleScenario2.node[0].nic.mac1609_4 	delayMedio 	0.005453483011
scalar RSUExampleScenario2.node[0].nic.mac1609_4 	throughputMedioBPS 	751079.62956587
scalar RSUExampleScenario2.node[14].nic.mac1609_4 	TotalLostPackets 	2
scalar RSUExampleScenario2.node[14].nic.mac1609_4 	delayMedio 	0.006162606986
scalar RSUExampleScenario2.node[14].nic.mac1609_4 	throughputMedioBPS 	664653.77547954
scalar RSUExampleScenario2.node[7].nic.mac1609_4 	TotalLostPackets 	1
scalar RSUExampleScenario2.node[7].nic.mac1609_4 	delayMedio 	0.006168272984
scalar RSUExampleScenario2.node[7].nic.mac1609_4 	throughputMedioBPS 	664043.24359458
scalar RSUExampleScenario2.node[2].nic.mac1609_4 	TotalLostPackets 	1
scalar RSUExampleScenario2.node[2].nic.mac1609_4 	delayMedio 	0.005461650222
scalar RSUExampleScenario2.node[2].nic.mac1609_4 	throughputMedioBPS 	749956.48455474
scalar RSUExampleScenario2.node[8].nic.mac1609_4 	TotalLostPackets 	2
scalar RSUExampleScenario2.node[8].nic.mac1609_4 	delayMedio 	0.005678900742
scalar RSUExampleScenario2.node[8].nic.mac1609_4 	throughputMedioBPS 	721266.34821662
scalar RSUExampleScenario2.node[3].nic.mac1609_4 	TotalLostPackets 	1
scalar RSUExampleScenario2.node[3].nic.mac1609_4 	delayMedio 	0.004851318179
scalar RSUExampleScenario2.node[3].nic.mac1609_4 	throughputMedioBPS 	844306.60888867
scalar RSUExampleScenario2.node[11].nic.mac1609_4 	TotalLostPackets 	1
scalar RSUExampleScenario2.node[11].nic.mac1609_4 	delayMedio 	0.00531764973
scalar RSUExampleScenario2.node[11].nic.mac1609_4 	throughputMedioBPS 	770265.09985097
scalar RSUExampleScenario2.node[17].nic.mac1609_4 	TotalLostPackets 	2
scalar RSUExampleScenario2.node[17].nic.mac1609_4 	delayMedio 	0.002453605868
scalar RSUExampleScenario2.node[17].nic.mac1609_4 	throughputMedioBPS 	1669379.7703261
scalar RSUExampleScenario2.node[27].nic.mac1609_4 	TotalLostPackets 	1
scalar RSUExampleScenario2.node[27].nic.mac1609_4 	delayMedio 	0.005650852925
scalar RSUExampleScenario2.node[27].nic.mac1609_4 	throughputMedioBPS 	724846.32931233
scalar RSUExampleScenario2.node[12].nic.mac1609_4 	TotalLostPackets 	1
scalar RSUExampleScenario2.node[12].nic.mac1609_4 	delayMedio 	0.005312289316
scalar RSUExampleScenario2.node[12].nic.mac1609_4 	throughputMedioBPS 	771042.3428277
scalar RSUExampleScenario2.node[18].nic.mac1609_4 	TotalLostPackets 	1
scalar RSUExampleScenario2.node[18].nic.mac1609_4 	delayMedio 	0.003100236692
scalar RSUExampleScenario2.node[18].nic.mac1609_4 	throughputMedioBPS 	1321189.4467288
scalar RSUExampleScenario2.node[22].nic.mac1609_4 	TotalLostPackets 	1
scalar RSUExampleScenario2.node[22].nic.mac1609_4 	delayMedio 	0.003770927438
scalar RSUExampleScenario2.node[22].nic.mac1609_4 	throughputMedioBPS 	1086204.9368221
scalar RSUExampleScenario2.node[28].nic.mac1609_4 	TotalLostPackets 	1
scalar RSUExampleScenario2.node[28].nic.mac1609_4 	delayMedio 	0.005325860536
scalar RSUExampleScenario2.node[28].nic.mac1609_4 	throughputMedioBPS 	769077.59269934
scalar RSUExampleScenario2.node[33].nic.mac1609_4 	TotalLostPackets 	0
scalar RSUExampleScenario2.node[33].nic.mac1609_4 	delayMedio 	0.000752831348
scalar RSUExampleScenario2.node[33].nic.mac1609_4 	throughputMedioBPS 	5440793.6232025
scalar RSUExampleScenario2.node[1].nic.mac1609_4 	TotalLostPackets 	1
scalar RSUExampleScenario2.node[1].nic.mac1609_4 	delayMedio 	0.004826078082
scalar RSUExampleScenario2.node[1].nic.mac1609_4 	throughputMedioBPS 	848722.28137254
scalar RSUExampleScenario2.node[29].nic.mac1609_4 	TotalLostPackets 	2
scalar RSUExampleScenario2.node[29].nic.mac1609_4 	delayMedio 	0.00455195089
scalar RSUExampleScenario2.node[29].nic.mac1609_4 	throughputMedioBPS 	899833.9610009
scalar RSUExampleScenario2.node[34].nic.mac1609_4 	TotalLostPackets 	0
scalar RSUExampleScenario2.node[34].nic.mac1609_4 	delayMedio 	0.000756644595
scalar RSUExampleScenario2.node[34].nic.mac1609_4 	throughputMedioBPS 	5413373.7631678
scalar RSUExampleScenario2.node[9].nic.mac1609_4 	TotalLostPackets 	1
scalar RSUExampleScenario2.node[9].nic.mac1609_4 	delayMedio 	0.005114352896
scalar RSUExampleScenario2.node[9].nic.mac1609_4 	throughputMedioBPS 	800883.33430719
scalar RSUExampleScenario2.node[15].nic.mac1609_4 	TotalLostPackets 	2
scalar RSUExampleScenario2.node[15].nic.mac1609_4 	delayMedio 	0.005563514603
scalar RSUExampleScenario2.node[15].nic.mac1609_4 	throughputMedioBPS 	736225.26270293
scalar RSUExampleScenario2.node[20].nic.mac1609_4 	TotalLostPackets 	1
scalar RSUExampleScenario2.node[20].nic.mac1609_4 	delayMedio 	0.003119711238
scalar RSUExampleScenario2.node[20].nic.mac1609_4 	throughputMedioBPS 	1312942.0281546
scalar RSUExampleScenario2.node[23].nic.mac1609_4 	TotalLostPackets 	1
scalar RSUExampleScenario2.node[23].nic.mac1609_4 	delayMedio 	0.003773772898
scalar RSUExampleScenario2.node[23].nic.mac1609_4 	throughputMedioBPS 	1085385.92825
scalar RSUExampleScenario2.node[25].nic.mac1609_4 	TotalLostPackets 	2
scalar RSUExampleScenario2.node[25].nic.mac1609_4 	delayMedio 	0.004343226208
scalar RSUExampleScenario2.node[25].nic.mac1609_4 	throughputMedioBPS 	943077.75001686
scalar RSUExampleScenario2.node[4].nic.mac1609_4 	TotalLostPackets 	1
scalar RSUExampleScenario2.node[4].nic.mac1609_4 	delayMedio 	0.00488233857
scalar RSUExampleScenario2.node[4].nic.mac1609_4 	throughputMedioBPS 	838942.22837499
scalar RSUExampleScenario2.node[19].nic.mac1609_4 	TotalLostPackets 	1
scalar RSUExampleScenario2.node[19].nic.mac1609_4 	delayMedio 	0.003330058199
scalar RSUExampleScenario2.node[19].nic.mac1609_4 	throughputMedioBPS 	1230008.533056
scalar RSUExampleScenario2.node[21].nic.mac1609_4 	TotalLostPackets 	1
scalar RSUExampleScenario2.node[21].nic.mac1609_4 	delayMedio 	0.003480153865
scalar RSUExampleScenario2.node[21].nic.mac1609_4 	throughputMedioBPS 	1176959.4562007
scalar RSUExampleScenario2.node[24].nic.mac1609_4 	TotalLostPackets 	1
scalar RSUExampleScenario2.node[24].nic.mac1609_4 	delayMedio 	0.003508655951
scalar RSUExampleScenario2.node[24].nic.mac1609_4 	throughputMedioBPS 	1167398.5870232
scalar RSUExampleScenario2.node[26].nic.mac1609_4 	TotalLostPackets 	1
scalar RSUExampleScenario2.node[26].nic.mac1609_4 	delayMedio 	0.004635871119
scalar RSUExampleScenario2.node[26].nic.mac1609_4 	throughputMedioBPS 	883544.83876204
scalar RSUExampleScenario2.node[30].nic.mac1609_4 	TotalLostPackets 	2
scalar RSUExampleScenario2.node[30].nic.mac1609_4 	delayMedio 	0.004767709702
scalar RSUExampleScenario2.node[30].nic.mac1609_4 	throughputMedioBPS 	859112.70951661
scalar RSUExampleScenario2.node[31].nic.mac1609_4 	TotalLostPackets 	2
scalar RSUExampleScenario2.node[31].nic.mac1609_4 	delayMedio 	0.005418447971
scalar RSUExampleScenario2.node[31].nic.mac1609_4 	throughputMedioBPS 	755936.02121317
scalar RSUExampleScenario2.node[32].nic.mac1609_4 	TotalLostPackets 	0
scalar RSUExampleScenario2.node[32].nic.mac1609_4 	delayMedio 	0.00076064416
scalar RSUExampleScenario2.node[32].nic.mac1609_4 	throughputMedioBPS 	5384909.5467227
scalar RSUExampleScenario2.node[35].nic.mac1609_4 	TotalLostPackets 	0
scalar RSUExampleScenario2.node[35].nic.mac1609_4 	delayMedio 	0.00075610464
scalar RSUExampleScenario2.node[35].nic.mac1609_4 	throughputMedioBPS 	5417239.6048586
scalar RSUExampleScenario2.node[10].nic.mac1609_4 	TotalLostPackets 	2
scalar RSUExampleScenario2.node[10].nic.mac1609_4 	delayMedio 	0.005214117831
scalar RSUExampleScenario2.node[10].nic.mac1609_4 	throughputMedioBPS 	785559.539014
scalar RSUExampleScenario2.node[13].nic.mac1609_4 	TotalLostPackets 	1
scalar RSUExampleScenario2.node[13].nic.mac1609_4 	delayMedio 	0.005458857473
scalar RSUExampleScenario2.node[13].nic.mac1609_4 	throughputMedioBPS 	750340.16191205
scalar RSUExampleScenario2.node[16].nic.mac1609_4 	TotalLostPackets 	1
scalar RSUExampleScenario2.node[16].nic.mac1609_4 	delayMedio 	0.003410778837
scalar RSUExampleScenario2.node[16].nic.mac1609_4 	throughputMedioBPS 	1200898.7377839
