version 2
run v1-53-20171207-20:00:42-11303
attr configname v1
attr cwmax 2048
attr cwmin 64
attr datetime 20171207-20:00:42
attr experiment v1
attr inifile omnetpp.ini
attr iterationvars "$cwmin=64, $cwmax=2048, $slotlength=25, $txPower=2.51"
attr iterationvars2 "$cwmin=64, $cwmax=2048, $slotlength=25, $txPower=2.51, $repetition=0"
attr measurement "$cwmin=64, $cwmax=2048, $slotlength=25, $txPower=2.51"
attr network RSUExampleScenario2
attr processid 11303
attr repetition 0
attr replication #0
attr resultdir results
attr runnumber 53
attr seedset 53
attr slotlength 25
attr txPower 2.51
param **.coreDebug true
param **.debug true
param *.**.nic.mac1609_4.bitrate 6Mbps
param *.**.nic.mac1609_4.cwmax_ "${cwmax=2048, 4096}"
param *.**.nic.mac1609_4.cwmin_ ${cwmin=64}
param *.**.nic.mac1609_4.slotlength_ "${slotlength=5..100 step 5}ms"
param *.**.nic.mac1609_4.txPower "${txPower=1.26, 2.51, 3.98, 10, 15.85, 25.12, 50.12, 100, 251.19, 501.19, 794.33, 1258.93, 1584.89}mW"
param *.**.nic.mac1609_4.useServiceChannel false
param *.**.nic.phy80211p.analogueModels "xmldoc(\"config.xml\")"
param *.**.nic.phy80211p.decider "xmldoc(\"config.xml\")"
param *.**.nic.phy80211p.sensitivity -89dBm
param *.**.nic.phy80211p.thermalNoise -110dBm
param *.**.nic.phy80211p.usePropagationDelay true
param *.**.nic.phy80211p.useThermalNoise true
param *.annotations.draw false
param *.connectionManager.alpha 2.0
param *.connectionManager.carrierFrequency "5.890e9 Hz"
param *.connectionManager.drawMaxIntfDist false
param *.connectionManager.maxInterfDist 2600m
param *.connectionManager.pMax 20mW
param *.connectionManager.sat -89dBm
param *.connectionManager.sendDirect true
param *.manager.autoShutdown true
param *.manager.host "\"localhost\""
param *.manager.launchConfig "xmldoc(\"osm.launchd.xml\")"
param *.manager.margin 25
param *.manager.moduleDisplayString "\"\""
param *.manager.moduleName "\"node\""
param *.manager.moduleType "\"org.car2x.veins.nodes.Car\""
param *.manager.port 9999
param *.manager.updateInterval 1s
param *.node[*].appl.beaconInterval "0.1 s"
param *.node[*].appl.beaconLengthBits "3960 bit"
param *.node[*].appl.beaconPriority 3
param *.node[*].appl.dataLengthBits "3960 bit"
param *.node[*].appl.dataOnSch false
param *.node[*].appl.dataPriority 2
param *.node[*].appl.debug false
param *.node[*].appl.headerLength "80 bit"
param *.node[*].appl.maxOffset "0.005 s"
param *.node[*].appl.sendBeacons true
param *.node[*].appl.sendData false
param *.node[*].applType "\"TraCIDemo11p\""
param *.node[*].mobilityType "\"TraCIMobility\""
param *.node[*].mobilityType.debug true
param *.node[*].veinsmobility.x 0
param *.node[*].veinsmobility.y 0
param *.node[*].veinsmobility.z 1.895
param *.node[*].veinsmobilityType "\"org.car2x.veins.modules.mobility.traci.TraCIMobility\""
param *.node[*].veinsmobilityType.debug true
param *.obstacles.debug false
param *.playgroundSizeX 2000m
param *.playgroundSizeY 2000m
param *.playgroundSizeZ 50m
param *.world.use2D false
param *.world.useTorus false

scalar . 	cwmax 	2048
scalar . 	cwmin 	64
scalar . 	slotlength 	25
scalar . 	txPower 	2.51
scalar RSUExampleScenario2.node[5].nic.mac1609_4 	TotalLostPackets 	17
scalar RSUExampleScenario2.node[5].nic.mac1609_4 	delayMedio 	0.005076353036
scalar RSUExampleScenario2.node[5].nic.mac1609_4 	throughputMedioBPS 	806878.47575548
scalar RSUExampleScenario2.node[0].nic.mac1609_4 	TotalLostPackets 	16
scalar RSUExampleScenario2.node[0].nic.mac1609_4 	delayMedio 	0.009869962881
scalar RSUExampleScenario2.node[0].nic.mac1609_4 	throughputMedioBPS 	414996.49484482
scalar RSUExampleScenario2.node[14].nic.mac1609_4 	TotalLostPackets 	0
scalar RSUExampleScenario2.node[14].nic.mac1609_4 	delayMedio 	0.005104623108
scalar RSUExampleScenario2.node[14].nic.mac1609_4 	throughputMedioBPS 	802409.87692984
scalar RSUExampleScenario2.node[2].nic.mac1609_4 	TotalLostPackets 	43
scalar RSUExampleScenario2.node[2].nic.mac1609_4 	delayMedio 	0.002132695693
scalar RSUExampleScenario2.node[2].nic.mac1609_4 	throughputMedioBPS 	1920574.0476486
scalar RSUExampleScenario2.node[7].nic.mac1609_4 	TotalLostPackets 	71
scalar RSUExampleScenario2.node[7].nic.mac1609_4 	delayMedio 	0.000721381905
scalar RSUExampleScenario2.node[7].nic.mac1609_4 	throughputMedioBPS 	5677991.0478975
scalar RSUExampleScenario2.node[8].nic.mac1609_4 	TotalLostPackets 	0
scalar RSUExampleScenario2.node[8].nic.mac1609_4 	delayMedio 	0.000721372816
scalar RSUExampleScenario2.node[8].nic.mac1609_4 	throughputMedioBPS 	5678062.5922801
scalar RSUExampleScenario2.node[3].nic.mac1609_4 	TotalLostPackets 	47
scalar RSUExampleScenario2.node[3].nic.mac1609_4 	delayMedio 	0.002498429167
scalar RSUExampleScenario2.node[3].nic.mac1609_4 	throughputMedioBPS 	1639430.1086892
scalar RSUExampleScenario2.node[11].nic.mac1609_4 	TotalLostPackets 	28
scalar RSUExampleScenario2.node[11].nic.mac1609_4 	delayMedio 	0.002556893962
scalar RSUExampleScenario2.node[11].nic.mac1609_4 	throughputMedioBPS 	1601943.6317363
scalar RSUExampleScenario2.node[17].nic.mac1609_4 	TotalLostPackets 	1
scalar RSUExampleScenario2.node[17].nic.mac1609_4 	delayMedio 	0.009634427423
scalar RSUExampleScenario2.node[17].nic.mac1609_4 	throughputMedioBPS 	425142.02661979
scalar RSUExampleScenario2.node[27].nic.mac1609_4 	TotalLostPackets 	0
scalar RSUExampleScenario2.node[27].nic.mac1609_4 	delayMedio 	0.000721445874
scalar RSUExampleScenario2.node[27].nic.mac1609_4 	throughputMedioBPS 	5677487.5977622
scalar RSUExampleScenario2.node[12].nic.mac1609_4 	TotalLostPackets 	88
scalar RSUExampleScenario2.node[12].nic.mac1609_4 	delayMedio 	0.001679371357
scalar RSUExampleScenario2.node[12].nic.mac1609_4 	throughputMedioBPS 	2439007.8956597
scalar RSUExampleScenario2.node[18].nic.mac1609_4 	TotalLostPackets 	60
scalar RSUExampleScenario2.node[18].nic.mac1609_4 	delayMedio 	0.000793217258
scalar RSUExampleScenario2.node[18].nic.mac1609_4 	throughputMedioBPS 	5163780.7396075
scalar RSUExampleScenario2.node[22].nic.mac1609_4 	TotalLostPackets 	81
scalar RSUExampleScenario2.node[22].nic.mac1609_4 	delayMedio 	0.000727433957
scalar RSUExampleScenario2.node[22].nic.mac1609_4 	throughputMedioBPS 	5630751.7141488
scalar RSUExampleScenario2.node[28].nic.mac1609_4 	TotalLostPackets 	43
scalar RSUExampleScenario2.node[28].nic.mac1609_4 	delayMedio 	0.000727598429
scalar RSUExampleScenario2.node[28].nic.mac1609_4 	throughputMedioBPS 	5629478.891582
scalar RSUExampleScenario2.node[1].nic.mac1609_4 	TotalLostPackets 	65
scalar RSUExampleScenario2.node[1].nic.mac1609_4 	delayMedio 	0.003311998459
scalar RSUExampleScenario2.node[1].nic.mac1609_4 	throughputMedioBPS 	1236715.5512722
scalar RSUExampleScenario2.node[29].nic.mac1609_4 	TotalLostPackets 	0
scalar RSUExampleScenario2.node[29].nic.mac1609_4 	delayMedio 	0.000721160739
scalar RSUExampleScenario2.node[29].nic.mac1609_4 	throughputMedioBPS 	5679732.380971
scalar RSUExampleScenario2.node[34].nic.mac1609_4 	TotalLostPackets 	0
scalar RSUExampleScenario2.node[34].nic.mac1609_4 	delayMedio 	0.040101821351
scalar RSUExampleScenario2.node[34].nic.mac1609_4 	throughputMedioBPS 	102139.99918338
scalar RSUExampleScenario2.node[9].nic.mac1609_4 	TotalLostPackets 	4
scalar RSUExampleScenario2.node[9].nic.mac1609_4 	delayMedio 	0.002853337437
scalar RSUExampleScenario2.node[9].nic.mac1609_4 	throughputMedioBPS 	1435511.9540797
scalar RSUExampleScenario2.node[15].nic.mac1609_4 	TotalLostPackets 	32
scalar RSUExampleScenario2.node[15].nic.mac1609_4 	delayMedio 	0.000733307978
scalar RSUExampleScenario2.node[15].nic.mac1609_4 	throughputMedioBPS 	5585647.6693093
scalar RSUExampleScenario2.node[20].nic.mac1609_4 	TotalLostPackets 	0
scalar RSUExampleScenario2.node[20].nic.mac1609_4 	delayMedio 	0.006833840335
scalar RSUExampleScenario2.node[20].nic.mac1609_4 	throughputMedioBPS 	599370.16364955
scalar RSUExampleScenario2.node[23].nic.mac1609_4 	TotalLostPackets 	109
scalar RSUExampleScenario2.node[23].nic.mac1609_4 	delayMedio 	0.000721349692
scalar RSUExampleScenario2.node[23].nic.mac1609_4 	throughputMedioBPS 	5678244.6083336
scalar RSUExampleScenario2.node[25].nic.mac1609_4 	TotalLostPackets 	30
scalar RSUExampleScenario2.node[25].nic.mac1609_4 	delayMedio 	0.000890245405
scalar RSUExampleScenario2.node[25].nic.mac1609_4 	throughputMedioBPS 	4600978.5350252
scalar RSUExampleScenario2.node[4].nic.mac1609_4 	TotalLostPackets 	30
scalar RSUExampleScenario2.node[4].nic.mac1609_4 	delayMedio 	0.003273801538
scalar RSUExampleScenario2.node[4].nic.mac1609_4 	throughputMedioBPS 	1251144.8699857
scalar RSUExampleScenario2.node[19].nic.mac1609_4 	TotalLostPackets 	11
scalar RSUExampleScenario2.node[19].nic.mac1609_4 	delayMedio 	0.000739776532
scalar RSUExampleScenario2.node[19].nic.mac1609_4 	throughputMedioBPS 	5536807.1587197
scalar RSUExampleScenario2.node[21].nic.mac1609_4 	TotalLostPackets 	1
scalar RSUExampleScenario2.node[21].nic.mac1609_4 	delayMedio 	0.008626959432
scalar RSUExampleScenario2.node[21].nic.mac1609_4 	throughputMedioBPS 	474790.68751211
scalar RSUExampleScenario2.node[24].nic.mac1609_4 	TotalLostPackets 	0
scalar RSUExampleScenario2.node[24].nic.mac1609_4 	delayMedio 	0.000721126224
scalar RSUExampleScenario2.node[24].nic.mac1609_4 	throughputMedioBPS 	5680004.2295858
scalar RSUExampleScenario2.node[26].nic.mac1609_4 	TotalLostPackets 	263
scalar RSUExampleScenario2.node[26].nic.mac1609_4 	delayMedio 	0.000721326026
scalar RSUExampleScenario2.node[26].nic.mac1609_4 	throughputMedioBPS 	5678430.904772
scalar RSUExampleScenario2.node[30].nic.mac1609_4 	TotalLostPackets 	10
scalar RSUExampleScenario2.node[30].nic.mac1609_4 	delayMedio 	0.000721249147
scalar RSUExampleScenario2.node[30].nic.mac1609_4 	throughputMedioBPS 	5679036.1785637
scalar RSUExampleScenario2.node[31].nic.mac1609_4 	TotalLostPackets 	0
scalar RSUExampleScenario2.node[31].nic.mac1609_4 	delayMedio 	0.000721167185
scalar RSUExampleScenario2.node[31].nic.mac1609_4 	throughputMedioBPS 	5679681.6115616
scalar RSUExampleScenario2.node[35].nic.mac1609_4 	TotalLostPackets 	13
scalar RSUExampleScenario2.node[35].nic.mac1609_4 	delayMedio 	0.000721366664
scalar RSUExampleScenario2.node[35].nic.mac1609_4 	throughputMedioBPS 	5678111.0121606
scalar RSUExampleScenario2.node[10].nic.mac1609_4 	TotalLostPackets 	0
scalar RSUExampleScenario2.node[10].nic.mac1609_4 	delayMedio 	0.000721277761
scalar RSUExampleScenario2.node[10].nic.mac1609_4 	throughputMedioBPS 	5678810.8852882
scalar RSUExampleScenario2.node[13].nic.mac1609_4 	TotalLostPackets 	32
scalar RSUExampleScenario2.node[13].nic.mac1609_4 	delayMedio 	0.001700280254
scalar RSUExampleScenario2.node[13].nic.mac1609_4 	throughputMedioBPS 	2409014.6259508
scalar RSUExampleScenario2.node[16].nic.mac1609_4 	TotalLostPackets 	93
scalar RSUExampleScenario2.node[16].nic.mac1609_4 	delayMedio 	0.00996319351
scalar RSUExampleScenario2.node[16].nic.mac1609_4 	throughputMedioBPS 	411113.16325459
