version 2
run v1-436-20171209-01:30:43-11303
attr configname v1
attr cwmax 4096
attr cwmin 64
attr datetime 20171209-01:30:43
attr experiment v1
attr inifile omnetpp.ini
attr iterationvars "$cwmin=64, $cwmax=4096, $slotlength=70, $txPower=100"
attr iterationvars2 "$cwmin=64, $cwmax=4096, $slotlength=70, $txPower=100, $repetition=0"
attr measurement "$cwmin=64, $cwmax=4096, $slotlength=70, $txPower=100"
attr network RSUExampleScenario2
attr processid 11303
attr repetition 0
attr replication #0
attr resultdir results
attr runnumber 436
attr seedset 436
attr slotlength 70
attr txPower 100
param **.coreDebug true
param **.debug true
param *.**.nic.mac1609_4.bitrate 6Mbps
param *.**.nic.mac1609_4.cwmax_ "${cwmax=2048, 4096}"
param *.**.nic.mac1609_4.cwmin_ ${cwmin=64}
param *.**.nic.mac1609_4.slotlength_ "${slotlength=5..100 step 5}ms"
param *.**.nic.mac1609_4.txPower "${txPower=1.26, 2.51, 3.98, 10, 15.85, 25.12, 50.12, 100, 251.19, 501.19, 794.33, 1258.93, 1584.89}mW"
param *.**.nic.mac1609_4.useServiceChannel false
param *.**.nic.phy80211p.analogueModels "xmldoc(\"config.xml\")"
param *.**.nic.phy80211p.decider "xmldoc(\"config.xml\")"
param *.**.nic.phy80211p.sensitivity -89dBm
param *.**.nic.phy80211p.thermalNoise -110dBm
param *.**.nic.phy80211p.usePropagationDelay true
param *.**.nic.phy80211p.useThermalNoise true
param *.annotations.draw false
param *.connectionManager.alpha 2.0
param *.connectionManager.carrierFrequency "5.890e9 Hz"
param *.connectionManager.drawMaxIntfDist false
param *.connectionManager.maxInterfDist 2600m
param *.connectionManager.pMax 20mW
param *.connectionManager.sat -89dBm
param *.connectionManager.sendDirect true
param *.manager.autoShutdown true
param *.manager.host "\"localhost\""
param *.manager.launchConfig "xmldoc(\"osm.launchd.xml\")"
param *.manager.margin 25
param *.manager.moduleDisplayString "\"\""
param *.manager.moduleName "\"node\""
param *.manager.moduleType "\"org.car2x.veins.nodes.Car\""
param *.manager.port 9999
param *.manager.updateInterval 1s
param *.node[*].appl.beaconInterval "0.1 s"
param *.node[*].appl.beaconLengthBits "3960 bit"
param *.node[*].appl.beaconPriority 3
param *.node[*].appl.dataLengthBits "3960 bit"
param *.node[*].appl.dataOnSch false
param *.node[*].appl.dataPriority 2
param *.node[*].appl.debug false
param *.node[*].appl.headerLength "80 bit"
param *.node[*].appl.maxOffset "0.005 s"
param *.node[*].appl.sendBeacons true
param *.node[*].appl.sendData false
param *.node[*].applType "\"TraCIDemo11p\""
param *.node[*].mobilityType "\"TraCIMobility\""
param *.node[*].mobilityType.debug true
param *.node[*].veinsmobility.x 0
param *.node[*].veinsmobility.y 0
param *.node[*].veinsmobility.z 1.895
param *.node[*].veinsmobilityType "\"org.car2x.veins.modules.mobility.traci.TraCIMobility\""
param *.node[*].veinsmobilityType.debug true
param *.obstacles.debug false
param *.playgroundSizeX 2000m
param *.playgroundSizeY 2000m
param *.playgroundSizeZ 50m
param *.world.use2D false
param *.world.useTorus false

scalar . 	cwmax 	4096
scalar . 	cwmin 	64
scalar . 	slotlength 	70
scalar . 	txPower 	100
scalar RSUExampleScenario2.node[6].nic.mac1609_4 	TotalLostPackets 	0
scalar RSUExampleScenario2.node[6].nic.mac1609_4 	delayMedio 	0.000723260485
scalar RSUExampleScenario2.node[6].nic.mac1609_4 	throughputMedioBPS 	5663243.1711368
scalar RSUExampleScenario2.node[5].nic.mac1609_4 	TotalLostPackets 	0
scalar RSUExampleScenario2.node[5].nic.mac1609_4 	delayMedio 	0.005662383722
scalar RSUExampleScenario2.node[5].nic.mac1609_4 	throughputMedioBPS 	723370.26265682
scalar RSUExampleScenario2.node[0].nic.mac1609_4 	TotalLostPackets 	0
scalar RSUExampleScenario2.node[0].nic.mac1609_4 	delayMedio 	0.00551341146
scalar RSUExampleScenario2.node[0].nic.mac1609_4 	throughputMedioBPS 	742915.7119609
scalar RSUExampleScenario2.node[14].nic.mac1609_4 	TotalLostPackets 	79
scalar RSUExampleScenario2.node[14].nic.mac1609_4 	delayMedio 	0.006687817729
scalar RSUExampleScenario2.node[14].nic.mac1609_4 	throughputMedioBPS 	612456.88294802
scalar RSUExampleScenario2.node[7].nic.mac1609_4 	TotalLostPackets 	91
scalar RSUExampleScenario2.node[7].nic.mac1609_4 	delayMedio 	0.006133254111
scalar RSUExampleScenario2.node[7].nic.mac1609_4 	throughputMedioBPS 	667834.71316002
scalar RSUExampleScenario2.node[2].nic.mac1609_4 	TotalLostPackets 	282
scalar RSUExampleScenario2.node[2].nic.mac1609_4 	delayMedio 	0.005770341947
scalar RSUExampleScenario2.node[2].nic.mac1609_4 	throughputMedioBPS 	709836.61581751
scalar RSUExampleScenario2.node[8].nic.mac1609_4 	TotalLostPackets 	207
scalar RSUExampleScenario2.node[8].nic.mac1609_4 	delayMedio 	0.00599343726
scalar RSUExampleScenario2.node[8].nic.mac1609_4 	throughputMedioBPS 	683414.17825928
scalar RSUExampleScenario2.node[3].nic.mac1609_4 	TotalLostPackets 	440
scalar RSUExampleScenario2.node[3].nic.mac1609_4 	delayMedio 	0.005162141016
scalar RSUExampleScenario2.node[3].nic.mac1609_4 	throughputMedioBPS 	793469.2189403
scalar RSUExampleScenario2.node[11].nic.mac1609_4 	TotalLostPackets 	442
scalar RSUExampleScenario2.node[11].nic.mac1609_4 	delayMedio 	0.005669293504
scalar RSUExampleScenario2.node[11].nic.mac1609_4 	throughputMedioBPS 	722488.61297317
scalar RSUExampleScenario2.node[17].nic.mac1609_4 	TotalLostPackets 	228
scalar RSUExampleScenario2.node[17].nic.mac1609_4 	delayMedio 	0.00286601403
scalar RSUExampleScenario2.node[17].nic.mac1609_4 	throughputMedioBPS 	1429162.5781468
scalar RSUExampleScenario2.node[27].nic.mac1609_4 	TotalLostPackets 	262
scalar RSUExampleScenario2.node[27].nic.mac1609_4 	delayMedio 	0.005615835526
scalar RSUExampleScenario2.node[27].nic.mac1609_4 	throughputMedioBPS 	729366.09008691
scalar RSUExampleScenario2.node[12].nic.mac1609_4 	TotalLostPackets 	442
scalar RSUExampleScenario2.node[12].nic.mac1609_4 	delayMedio 	0.005672088909
scalar RSUExampleScenario2.node[12].nic.mac1609_4 	throughputMedioBPS 	722132.54516328
scalar RSUExampleScenario2.node[18].nic.mac1609_4 	TotalLostPackets 	442
scalar RSUExampleScenario2.node[18].nic.mac1609_4 	delayMedio 	0.003377989933
scalar RSUExampleScenario2.node[18].nic.mac1609_4 	throughputMedioBPS 	1212555.419288
scalar RSUExampleScenario2.node[22].nic.mac1609_4 	TotalLostPackets 	442
scalar RSUExampleScenario2.node[22].nic.mac1609_4 	delayMedio 	0.004165628937
scalar RSUExampleScenario2.node[22].nic.mac1609_4 	throughputMedioBPS 	983284.89224018
scalar RSUExampleScenario2.node[28].nic.mac1609_4 	TotalLostPackets 	442
scalar RSUExampleScenario2.node[28].nic.mac1609_4 	delayMedio 	0.006105832042
scalar RSUExampleScenario2.node[28].nic.mac1609_4 	throughputMedioBPS 	670834.04389297
scalar RSUExampleScenario2.node[33].nic.mac1609_4 	TotalLostPackets 	160
scalar RSUExampleScenario2.node[33].nic.mac1609_4 	delayMedio 	0.000776253993
scalar RSUExampleScenario2.node[33].nic.mac1609_4 	throughputMedioBPS 	5276623.4194084
scalar RSUExampleScenario2.node[1].nic.mac1609_4 	TotalLostPackets 	442
scalar RSUExampleScenario2.node[1].nic.mac1609_4 	delayMedio 	0.005125719921
scalar RSUExampleScenario2.node[1].nic.mac1609_4 	throughputMedioBPS 	799107.25975701
scalar RSUExampleScenario2.node[29].nic.mac1609_4 	TotalLostPackets 	260
scalar RSUExampleScenario2.node[29].nic.mac1609_4 	delayMedio 	0.005627138536
scalar RSUExampleScenario2.node[29].nic.mac1609_4 	throughputMedioBPS 	727901.04137354
scalar RSUExampleScenario2.node[34].nic.mac1609_4 	TotalLostPackets 	150
scalar RSUExampleScenario2.node[34].nic.mac1609_4 	delayMedio 	0.000777489909
scalar RSUExampleScenario2.node[34].nic.mac1609_4 	throughputMedioBPS 	5268235.5764314
scalar RSUExampleScenario2.node[9].nic.mac1609_4 	TotalLostPackets 	387
scalar RSUExampleScenario2.node[9].nic.mac1609_4 	delayMedio 	0.00556639875
scalar RSUExampleScenario2.node[9].nic.mac1609_4 	throughputMedioBPS 	735843.798495
scalar RSUExampleScenario2.node[15].nic.mac1609_4 	TotalLostPackets 	434
scalar RSUExampleScenario2.node[15].nic.mac1609_4 	delayMedio 	0.005962234728
scalar RSUExampleScenario2.node[15].nic.mac1609_4 	throughputMedioBPS 	686990.73196983
scalar RSUExampleScenario2.node[20].nic.mac1609_4 	TotalLostPackets 	41
scalar RSUExampleScenario2.node[20].nic.mac1609_4 	delayMedio 	0.003208119682
scalar RSUExampleScenario2.node[20].nic.mac1609_4 	throughputMedioBPS 	1276760.3473656
scalar RSUExampleScenario2.node[23].nic.mac1609_4 	TotalLostPackets 	440
scalar RSUExampleScenario2.node[23].nic.mac1609_4 	delayMedio 	0.004179906135
scalar RSUExampleScenario2.node[23].nic.mac1609_4 	throughputMedioBPS 	979926.31123859
scalar RSUExampleScenario2.node[25].nic.mac1609_4 	TotalLostPackets 	401
scalar RSUExampleScenario2.node[25].nic.mac1609_4 	delayMedio 	0.005143970204
scalar RSUExampleScenario2.node[25].nic.mac1609_4 	throughputMedioBPS 	796272.10841128
scalar RSUExampleScenario2.node[4].nic.mac1609_4 	TotalLostPackets 	433
scalar RSUExampleScenario2.node[4].nic.mac1609_4 	delayMedio 	0.005192671764
scalar RSUExampleScenario2.node[4].nic.mac1609_4 	throughputMedioBPS 	788803.95034386
scalar RSUExampleScenario2.node[19].nic.mac1609_4 	TotalLostPackets 	442
scalar RSUExampleScenario2.node[19].nic.mac1609_4 	delayMedio 	0.003652508397
scalar RSUExampleScenario2.node[19].nic.mac1609_4 	throughputMedioBPS 	1121421.1042776
scalar RSUExampleScenario2.node[21].nic.mac1609_4 	TotalLostPackets 	400
scalar RSUExampleScenario2.node[21].nic.mac1609_4 	delayMedio 	0.004046161638
scalar RSUExampleScenario2.node[21].nic.mac1609_4 	throughputMedioBPS 	1012317.4421314
scalar RSUExampleScenario2.node[24].nic.mac1609_4 	TotalLostPackets 	20
scalar RSUExampleScenario2.node[24].nic.mac1609_4 	delayMedio 	0.003647660227
scalar RSUExampleScenario2.node[24].nic.mac1609_4 	throughputMedioBPS 	1122911.6049612
scalar RSUExampleScenario2.node[26].nic.mac1609_4 	TotalLostPackets 	442
scalar RSUExampleScenario2.node[26].nic.mac1609_4 	delayMedio 	0.005237174975
scalar RSUExampleScenario2.node[26].nic.mac1609_4 	throughputMedioBPS 	782101.04106552
scalar RSUExampleScenario2.node[30].nic.mac1609_4 	TotalLostPackets 	401
scalar RSUExampleScenario2.node[30].nic.mac1609_4 	delayMedio 	0.005852208148
scalar RSUExampleScenario2.node[30].nic.mac1609_4 	throughputMedioBPS 	699906.75253092
scalar RSUExampleScenario2.node[31].nic.mac1609_4 	TotalLostPackets 	220
scalar RSUExampleScenario2.node[31].nic.mac1609_4 	delayMedio 	0.006788262334
scalar RSUExampleScenario2.node[31].nic.mac1609_4 	throughputMedioBPS 	603394.47690255
scalar RSUExampleScenario2.node[32].nic.mac1609_4 	TotalLostPackets 	260
scalar RSUExampleScenario2.node[32].nic.mac1609_4 	delayMedio 	0.000784366317
scalar RSUExampleScenario2.node[32].nic.mac1609_4 	throughputMedioBPS 	5222049.8375168
scalar RSUExampleScenario2.node[35].nic.mac1609_4 	TotalLostPackets 	60
scalar RSUExampleScenario2.node[35].nic.mac1609_4 	delayMedio 	0.000773331359
scalar RSUExampleScenario2.node[35].nic.mac1609_4 	throughputMedioBPS 	5296565.2467116
scalar RSUExampleScenario2.node[10].nic.mac1609_4 	TotalLostPackets 	290
scalar RSUExampleScenario2.node[10].nic.mac1609_4 	delayMedio 	0.005645810627
scalar RSUExampleScenario2.node[10].nic.mac1609_4 	throughputMedioBPS 	725493.69275209
scalar RSUExampleScenario2.node[13].nic.mac1609_4 	TotalLostPackets 	442
scalar RSUExampleScenario2.node[13].nic.mac1609_4 	delayMedio 	0.005798355003
scalar RSUExampleScenario2.node[13].nic.mac1609_4 	throughputMedioBPS 	706407.24794114
scalar RSUExampleScenario2.node[16].nic.mac1609_4 	TotalLostPackets 	221
scalar RSUExampleScenario2.node[16].nic.mac1609_4 	delayMedio 	0.003810536761
scalar RSUExampleScenario2.node[16].nic.mac1609_4 	throughputMedioBPS 	1074914.1804735
