version 2
run v1-85-20171207-22:24:43-11303
attr configname v1
attr cwmax 2048
attr cwmin 64
attr datetime 20171207-22:24:43
attr experiment v1
attr inifile omnetpp.ini
attr iterationvars "$cwmin=64, $cwmax=2048, $slotlength=35, $txPower=100"
attr iterationvars2 "$cwmin=64, $cwmax=2048, $slotlength=35, $txPower=100, $repetition=0"
attr measurement "$cwmin=64, $cwmax=2048, $slotlength=35, $txPower=100"
attr network RSUExampleScenario2
attr processid 11303
attr repetition 0
attr replication #0
attr resultdir results
attr runnumber 85
attr seedset 85
attr slotlength 35
attr txPower 100
param **.coreDebug true
param **.debug true
param *.**.nic.mac1609_4.bitrate 6Mbps
param *.**.nic.mac1609_4.cwmax_ "${cwmax=2048, 4096}"
param *.**.nic.mac1609_4.cwmin_ ${cwmin=64}
param *.**.nic.mac1609_4.slotlength_ "${slotlength=5..100 step 5}ms"
param *.**.nic.mac1609_4.txPower "${txPower=1.26, 2.51, 3.98, 10, 15.85, 25.12, 50.12, 100, 251.19, 501.19, 794.33, 1258.93, 1584.89}mW"
param *.**.nic.mac1609_4.useServiceChannel false
param *.**.nic.phy80211p.analogueModels "xmldoc(\"config.xml\")"
param *.**.nic.phy80211p.decider "xmldoc(\"config.xml\")"
param *.**.nic.phy80211p.sensitivity -89dBm
param *.**.nic.phy80211p.thermalNoise -110dBm
param *.**.nic.phy80211p.usePropagationDelay true
param *.**.nic.phy80211p.useThermalNoise true
param *.annotations.draw false
param *.connectionManager.alpha 2.0
param *.connectionManager.carrierFrequency "5.890e9 Hz"
param *.connectionManager.drawMaxIntfDist false
param *.connectionManager.maxInterfDist 2600m
param *.connectionManager.pMax 20mW
param *.connectionManager.sat -89dBm
param *.connectionManager.sendDirect true
param *.manager.autoShutdown true
param *.manager.host "\"localhost\""
param *.manager.launchConfig "xmldoc(\"osm.launchd.xml\")"
param *.manager.margin 25
param *.manager.moduleDisplayString "\"\""
param *.manager.moduleName "\"node\""
param *.manager.moduleType "\"org.car2x.veins.nodes.Car\""
param *.manager.port 9999
param *.manager.updateInterval 1s
param *.node[*].appl.beaconInterval "0.1 s"
param *.node[*].appl.beaconLengthBits "3960 bit"
param *.node[*].appl.beaconPriority 3
param *.node[*].appl.dataLengthBits "3960 bit"
param *.node[*].appl.dataOnSch false
param *.node[*].appl.dataPriority 2
param *.node[*].appl.debug false
param *.node[*].appl.headerLength "80 bit"
param *.node[*].appl.maxOffset "0.005 s"
param *.node[*].appl.sendBeacons true
param *.node[*].appl.sendData false
param *.node[*].applType "\"TraCIDemo11p\""
param *.node[*].mobilityType "\"TraCIMobility\""
param *.node[*].mobilityType.debug true
param *.node[*].veinsmobility.x 0
param *.node[*].veinsmobility.y 0
param *.node[*].veinsmobility.z 1.895
param *.node[*].veinsmobilityType "\"org.car2x.veins.modules.mobility.traci.TraCIMobility\""
param *.node[*].veinsmobilityType.debug true
param *.obstacles.debug false
param *.playgroundSizeX 2000m
param *.playgroundSizeY 2000m
param *.playgroundSizeZ 50m
param *.world.use2D false
param *.world.useTorus false

scalar . 	cwmax 	2048
scalar . 	cwmin 	64
scalar . 	slotlength 	35
scalar . 	txPower 	100
scalar RSUExampleScenario2.node[6].nic.mac1609_4 	TotalLostPackets 	0
scalar RSUExampleScenario2.node[6].nic.mac1609_4 	delayMedio 	0.000723259324
scalar RSUExampleScenario2.node[6].nic.mac1609_4 	throughputMedioBPS 	5663252.2588876
scalar RSUExampleScenario2.node[5].nic.mac1609_4 	TotalLostPackets 	0
scalar RSUExampleScenario2.node[5].nic.mac1609_4 	delayMedio 	0.005605598043
scalar RSUExampleScenario2.node[5].nic.mac1609_4 	throughputMedioBPS 	730698.12865579
scalar RSUExampleScenario2.node[0].nic.mac1609_4 	TotalLostPackets 	0
scalar RSUExampleScenario2.node[0].nic.mac1609_4 	delayMedio 	0.005478235239
scalar RSUExampleScenario2.node[0].nic.mac1609_4 	throughputMedioBPS 	747686.03780624
scalar RSUExampleScenario2.node[14].nic.mac1609_4 	TotalLostPackets 	4
scalar RSUExampleScenario2.node[14].nic.mac1609_4 	delayMedio 	0.006397663072
scalar RSUExampleScenario2.node[14].nic.mac1609_4 	throughputMedioBPS 	640233.77820854
scalar RSUExampleScenario2.node[7].nic.mac1609_4 	TotalLostPackets 	4
scalar RSUExampleScenario2.node[7].nic.mac1609_4 	delayMedio 	0.006061803532
scalar RSUExampleScenario2.node[7].nic.mac1609_4 	throughputMedioBPS 	675706.49205275
scalar RSUExampleScenario2.node[2].nic.mac1609_4 	TotalLostPackets 	4
scalar RSUExampleScenario2.node[2].nic.mac1609_4 	delayMedio 	0.005645280411
scalar RSUExampleScenario2.node[2].nic.mac1609_4 	throughputMedioBPS 	725561.83249309
scalar RSUExampleScenario2.node[8].nic.mac1609_4 	TotalLostPackets 	4
scalar RSUExampleScenario2.node[8].nic.mac1609_4 	delayMedio 	0.005883921028
scalar RSUExampleScenario2.node[8].nic.mac1609_4 	throughputMedioBPS 	696134.42818446
scalar RSUExampleScenario2.node[3].nic.mac1609_4 	TotalLostPackets 	3
scalar RSUExampleScenario2.node[3].nic.mac1609_4 	delayMedio 	0.00501654257
scalar RSUExampleScenario2.node[3].nic.mac1609_4 	throughputMedioBPS 	816498.60301146
scalar RSUExampleScenario2.node[11].nic.mac1609_4 	TotalLostPackets 	2
scalar RSUExampleScenario2.node[11].nic.mac1609_4 	delayMedio 	0.005639621125
scalar RSUExampleScenario2.node[11].nic.mac1609_4 	throughputMedioBPS 	726289.92433825
scalar RSUExampleScenario2.node[17].nic.mac1609_4 	TotalLostPackets 	4
scalar RSUExampleScenario2.node[17].nic.mac1609_4 	delayMedio 	0.00262795233
scalar RSUExampleScenario2.node[17].nic.mac1609_4 	throughputMedioBPS 	1558627.9677699
scalar RSUExampleScenario2.node[27].nic.mac1609_4 	TotalLostPackets 	4
scalar RSUExampleScenario2.node[27].nic.mac1609_4 	delayMedio 	0.00539258236
scalar RSUExampleScenario2.node[27].nic.mac1609_4 	throughputMedioBPS 	759561.88084948
scalar RSUExampleScenario2.node[12].nic.mac1609_4 	TotalLostPackets 	2
scalar RSUExampleScenario2.node[12].nic.mac1609_4 	delayMedio 	0.005640935904
scalar RSUExampleScenario2.node[12].nic.mac1609_4 	throughputMedioBPS 	726120.64200404
scalar RSUExampleScenario2.node[18].nic.mac1609_4 	TotalLostPackets 	4
scalar RSUExampleScenario2.node[18].nic.mac1609_4 	delayMedio 	0.003288525678
scalar RSUExampleScenario2.node[18].nic.mac1609_4 	throughputMedioBPS 	1245542.9579958
scalar RSUExampleScenario2.node[22].nic.mac1609_4 	TotalLostPackets 	4
scalar RSUExampleScenario2.node[22].nic.mac1609_4 	delayMedio 	0.004012494696
scalar RSUExampleScenario2.node[22].nic.mac1609_4 	throughputMedioBPS 	1020811.318247
scalar RSUExampleScenario2.node[28].nic.mac1609_4 	TotalLostPackets 	4
scalar RSUExampleScenario2.node[28].nic.mac1609_4 	delayMedio 	0.00572977801
scalar RSUExampleScenario2.node[28].nic.mac1609_4 	throughputMedioBPS 	714861.90084893
scalar RSUExampleScenario2.node[33].nic.mac1609_4 	TotalLostPackets 	0
scalar RSUExampleScenario2.node[33].nic.mac1609_4 	delayMedio 	0.000791847858
scalar RSUExampleScenario2.node[33].nic.mac1609_4 	throughputMedioBPS 	5172710.8399461
scalar RSUExampleScenario2.node[1].nic.mac1609_4 	TotalLostPackets 	3
scalar RSUExampleScenario2.node[1].nic.mac1609_4 	delayMedio 	0.00499492556
scalar RSUExampleScenario2.node[1].nic.mac1609_4 	throughputMedioBPS 	820032.24096095
scalar RSUExampleScenario2.node[29].nic.mac1609_4 	TotalLostPackets 	4
scalar RSUExampleScenario2.node[29].nic.mac1609_4 	delayMedio 	0.004978526599
scalar RSUExampleScenario2.node[29].nic.mac1609_4 	throughputMedioBPS 	822733.37673774
scalar RSUExampleScenario2.node[34].nic.mac1609_4 	TotalLostPackets 	0
scalar RSUExampleScenario2.node[34].nic.mac1609_4 	delayMedio 	0.000789756178
scalar RSUExampleScenario2.node[34].nic.mac1609_4 	throughputMedioBPS 	5186410.8335351
scalar RSUExampleScenario2.node[9].nic.mac1609_4 	TotalLostPackets 	4
scalar RSUExampleScenario2.node[9].nic.mac1609_4 	delayMedio 	0.005277695238
scalar RSUExampleScenario2.node[9].nic.mac1609_4 	throughputMedioBPS 	776096.3479562
scalar RSUExampleScenario2.node[15].nic.mac1609_4 	TotalLostPackets 	2
scalar RSUExampleScenario2.node[15].nic.mac1609_4 	delayMedio 	0.005753072348
scalar RSUExampleScenario2.node[15].nic.mac1609_4 	throughputMedioBPS 	711967.40661394
scalar RSUExampleScenario2.node[20].nic.mac1609_4 	TotalLostPackets 	4
scalar RSUExampleScenario2.node[20].nic.mac1609_4 	delayMedio 	0.002944090037
scalar RSUExampleScenario2.node[20].nic.mac1609_4 	throughputMedioBPS 	1391261.7986185
scalar RSUExampleScenario2.node[23].nic.mac1609_4 	TotalLostPackets 	3
scalar RSUExampleScenario2.node[23].nic.mac1609_4 	delayMedio 	0.004021611906
scalar RSUExampleScenario2.node[23].nic.mac1609_4 	throughputMedioBPS 	1018497.0842066
scalar RSUExampleScenario2.node[25].nic.mac1609_4 	TotalLostPackets 	4
scalar RSUExampleScenario2.node[25].nic.mac1609_4 	delayMedio 	0.004664111362
scalar RSUExampleScenario2.node[25].nic.mac1609_4 	throughputMedioBPS 	878195.15489696
scalar RSUExampleScenario2.node[4].nic.mac1609_4 	TotalLostPackets 	3
scalar RSUExampleScenario2.node[4].nic.mac1609_4 	delayMedio 	0.005059640108
scalar RSUExampleScenario2.node[4].nic.mac1609_4 	throughputMedioBPS 	809543.74472808
scalar RSUExampleScenario2.node[19].nic.mac1609_4 	TotalLostPackets 	2
scalar RSUExampleScenario2.node[19].nic.mac1609_4 	delayMedio 	0.003722474829
scalar RSUExampleScenario2.node[19].nic.mac1609_4 	throughputMedioBPS 	1100343.2360605
scalar RSUExampleScenario2.node[21].nic.mac1609_4 	TotalLostPackets 	3
scalar RSUExampleScenario2.node[21].nic.mac1609_4 	delayMedio 	0.003692266757
scalar RSUExampleScenario2.node[21].nic.mac1609_4 	throughputMedioBPS 	1109345.632338
scalar RSUExampleScenario2.node[24].nic.mac1609_4 	TotalLostPackets 	4
scalar RSUExampleScenario2.node[24].nic.mac1609_4 	delayMedio 	0.003301517533
scalar RSUExampleScenario2.node[24].nic.mac1609_4 	throughputMedioBPS 	1240641.6015703
scalar RSUExampleScenario2.node[26].nic.mac1609_4 	TotalLostPackets 	3
scalar RSUExampleScenario2.node[26].nic.mac1609_4 	delayMedio 	0.004959170582
scalar RSUExampleScenario2.node[26].nic.mac1609_4 	throughputMedioBPS 	825944.56726502
scalar RSUExampleScenario2.node[30].nic.mac1609_4 	TotalLostPackets 	4
scalar RSUExampleScenario2.node[30].nic.mac1609_4 	delayMedio 	0.005149991501
scalar RSUExampleScenario2.node[30].nic.mac1609_4 	throughputMedioBPS 	795341.1184428
scalar RSUExampleScenario2.node[31].nic.mac1609_4 	TotalLostPackets 	4
scalar RSUExampleScenario2.node[31].nic.mac1609_4 	delayMedio 	0.005974044372
scalar RSUExampleScenario2.node[31].nic.mac1609_4 	throughputMedioBPS 	685632.67103663
scalar RSUExampleScenario2.node[32].nic.mac1609_4 	TotalLostPackets 	0
scalar RSUExampleScenario2.node[32].nic.mac1609_4 	delayMedio 	0.000783256474
scalar RSUExampleScenario2.node[32].nic.mac1609_4 	throughputMedioBPS 	5229449.2743587
scalar RSUExampleScenario2.node[35].nic.mac1609_4 	TotalLostPackets 	0
scalar RSUExampleScenario2.node[35].nic.mac1609_4 	delayMedio 	0.000789057355
scalar RSUExampleScenario2.node[35].nic.mac1609_4 	throughputMedioBPS 	5191004.1470171
scalar RSUExampleScenario2.node[10].nic.mac1609_4 	TotalLostPackets 	4
scalar RSUExampleScenario2.node[10].nic.mac1609_4 	delayMedio 	0.005387319326
scalar RSUExampleScenario2.node[10].nic.mac1609_4 	throughputMedioBPS 	760303.91968241
scalar RSUExampleScenario2.node[13].nic.mac1609_4 	TotalLostPackets 	2
scalar RSUExampleScenario2.node[13].nic.mac1609_4 	delayMedio 	0.005792459404
scalar RSUExampleScenario2.node[13].nic.mac1609_4 	throughputMedioBPS 	707126.23336789
scalar RSUExampleScenario2.node[16].nic.mac1609_4 	TotalLostPackets 	4
scalar RSUExampleScenario2.node[16].nic.mac1609_4 	delayMedio 	0.003596736821
scalar RSUExampleScenario2.node[16].nic.mac1609_4 	throughputMedioBPS 	1138810.0390655
