version 2
run v1-397-20171208-22:30:42-11303
attr configname v1
attr cwmax 4096
attr cwmin 64
attr datetime 20171208-22:30:42
attr experiment v1
attr inifile omnetpp.ini
attr iterationvars "$cwmin=64, $cwmax=4096, $slotlength=55, $txPower=100"
attr iterationvars2 "$cwmin=64, $cwmax=4096, $slotlength=55, $txPower=100, $repetition=0"
attr measurement "$cwmin=64, $cwmax=4096, $slotlength=55, $txPower=100"
attr network RSUExampleScenario2
attr processid 11303
attr repetition 0
attr replication #0
attr resultdir results
attr runnumber 397
attr seedset 397
attr slotlength 55
attr txPower 100
param **.coreDebug true
param **.debug true
param *.**.nic.mac1609_4.bitrate 6Mbps
param *.**.nic.mac1609_4.cwmax_ "${cwmax=2048, 4096}"
param *.**.nic.mac1609_4.cwmin_ ${cwmin=64}
param *.**.nic.mac1609_4.slotlength_ "${slotlength=5..100 step 5}ms"
param *.**.nic.mac1609_4.txPower "${txPower=1.26, 2.51, 3.98, 10, 15.85, 25.12, 50.12, 100, 251.19, 501.19, 794.33, 1258.93, 1584.89}mW"
param *.**.nic.mac1609_4.useServiceChannel false
param *.**.nic.phy80211p.analogueModels "xmldoc(\"config.xml\")"
param *.**.nic.phy80211p.decider "xmldoc(\"config.xml\")"
param *.**.nic.phy80211p.sensitivity -89dBm
param *.**.nic.phy80211p.thermalNoise -110dBm
param *.**.nic.phy80211p.usePropagationDelay true
param *.**.nic.phy80211p.useThermalNoise true
param *.annotations.draw false
param *.connectionManager.alpha 2.0
param *.connectionManager.carrierFrequency "5.890e9 Hz"
param *.connectionManager.drawMaxIntfDist false
param *.connectionManager.maxInterfDist 2600m
param *.connectionManager.pMax 20mW
param *.connectionManager.sat -89dBm
param *.connectionManager.sendDirect true
param *.manager.autoShutdown true
param *.manager.host "\"localhost\""
param *.manager.launchConfig "xmldoc(\"osm.launchd.xml\")"
param *.manager.margin 25
param *.manager.moduleDisplayString "\"\""
param *.manager.moduleName "\"node\""
param *.manager.moduleType "\"org.car2x.veins.nodes.Car\""
param *.manager.port 9999
param *.manager.updateInterval 1s
param *.node[*].appl.beaconInterval "0.1 s"
param *.node[*].appl.beaconLengthBits "3960 bit"
param *.node[*].appl.beaconPriority 3
param *.node[*].appl.dataLengthBits "3960 bit"
param *.node[*].appl.dataOnSch false
param *.node[*].appl.dataPriority 2
param *.node[*].appl.debug false
param *.node[*].appl.headerLength "80 bit"
param *.node[*].appl.maxOffset "0.005 s"
param *.node[*].appl.sendBeacons true
param *.node[*].appl.sendData false
param *.node[*].applType "\"TraCIDemo11p\""
param *.node[*].mobilityType "\"TraCIMobility\""
param *.node[*].mobilityType.debug true
param *.node[*].veinsmobility.x 0
param *.node[*].veinsmobility.y 0
param *.node[*].veinsmobility.z 1.895
param *.node[*].veinsmobilityType "\"org.car2x.veins.modules.mobility.traci.TraCIMobility\""
param *.node[*].veinsmobilityType.debug true
param *.obstacles.debug false
param *.playgroundSizeX 2000m
param *.playgroundSizeY 2000m
param *.playgroundSizeZ 50m
param *.world.use2D false
param *.world.useTorus false

scalar . 	cwmax 	4096
scalar . 	cwmin 	64
scalar . 	slotlength 	55
scalar . 	txPower 	100
scalar RSUExampleScenario2.node[6].nic.mac1609_4 	TotalLostPackets 	0
scalar RSUExampleScenario2.node[6].nic.mac1609_4 	delayMedio 	0.00078594543
scalar RSUExampleScenario2.node[6].nic.mac1609_4 	throughputMedioBPS 	5211557.7543165
scalar RSUExampleScenario2.node[5].nic.mac1609_4 	TotalLostPackets 	220
scalar RSUExampleScenario2.node[5].nic.mac1609_4 	delayMedio 	0.005725969872
scalar RSUExampleScenario2.node[5].nic.mac1609_4 	throughputMedioBPS 	715337.33005908
scalar RSUExampleScenario2.node[0].nic.mac1609_4 	TotalLostPackets 	146
scalar RSUExampleScenario2.node[0].nic.mac1609_4 	delayMedio 	0.005516344744
scalar RSUExampleScenario2.node[0].nic.mac1609_4 	throughputMedioBPS 	742520.67088152
scalar RSUExampleScenario2.node[14].nic.mac1609_4 	TotalLostPackets 	220
scalar RSUExampleScenario2.node[14].nic.mac1609_4 	delayMedio 	0.006653360407
scalar RSUExampleScenario2.node[14].nic.mac1609_4 	throughputMedioBPS 	615628.75743341
scalar RSUExampleScenario2.node[7].nic.mac1609_4 	TotalLostPackets 	0
scalar RSUExampleScenario2.node[7].nic.mac1609_4 	delayMedio 	0.006186650066
scalar RSUExampleScenario2.node[7].nic.mac1609_4 	throughputMedioBPS 	662070.74201083
scalar RSUExampleScenario2.node[2].nic.mac1609_4 	TotalLostPackets 	190
scalar RSUExampleScenario2.node[2].nic.mac1609_4 	delayMedio 	0.005790917229
scalar RSUExampleScenario2.node[2].nic.mac1609_4 	throughputMedioBPS 	707314.54761137
scalar RSUExampleScenario2.node[8].nic.mac1609_4 	TotalLostPackets 	0
scalar RSUExampleScenario2.node[8].nic.mac1609_4 	delayMedio 	0.006001342515
scalar RSUExampleScenario2.node[8].nic.mac1609_4 	throughputMedioBPS 	682513.95240794
scalar RSUExampleScenario2.node[3].nic.mac1609_4 	TotalLostPackets 	220
scalar RSUExampleScenario2.node[3].nic.mac1609_4 	delayMedio 	0.005181131005
scalar RSUExampleScenario2.node[3].nic.mac1609_4 	throughputMedioBPS 	790560.97902011
scalar RSUExampleScenario2.node[11].nic.mac1609_4 	TotalLostPackets 	112
scalar RSUExampleScenario2.node[11].nic.mac1609_4 	delayMedio 	0.005622220861
scalar RSUExampleScenario2.node[11].nic.mac1609_4 	throughputMedioBPS 	728537.72579681
scalar RSUExampleScenario2.node[17].nic.mac1609_4 	TotalLostPackets 	220
scalar RSUExampleScenario2.node[17].nic.mac1609_4 	delayMedio 	0.002836113405
scalar RSUExampleScenario2.node[17].nic.mac1609_4 	throughputMedioBPS 	1444229.9780008
scalar RSUExampleScenario2.node[27].nic.mac1609_4 	TotalLostPackets 	0
scalar RSUExampleScenario2.node[27].nic.mac1609_4 	delayMedio 	0.005678046066
scalar RSUExampleScenario2.node[27].nic.mac1609_4 	throughputMedioBPS 	721374.91534345
scalar RSUExampleScenario2.node[12].nic.mac1609_4 	TotalLostPackets 	110
scalar RSUExampleScenario2.node[12].nic.mac1609_4 	delayMedio 	0.005632685175
scalar RSUExampleScenario2.node[12].nic.mac1609_4 	throughputMedioBPS 	727184.25979709
scalar RSUExampleScenario2.node[18].nic.mac1609_4 	TotalLostPackets 	0
scalar RSUExampleScenario2.node[18].nic.mac1609_4 	delayMedio 	0.003436850894
scalar RSUExampleScenario2.node[18].nic.mac1609_4 	throughputMedioBPS 	1191788.6828296
scalar RSUExampleScenario2.node[22].nic.mac1609_4 	TotalLostPackets 	60
scalar RSUExampleScenario2.node[22].nic.mac1609_4 	delayMedio 	0.004235670741
scalar RSUExampleScenario2.node[22].nic.mac1609_4 	throughputMedioBPS 	967025.11855192
scalar RSUExampleScenario2.node[28].nic.mac1609_4 	TotalLostPackets 	0
scalar RSUExampleScenario2.node[28].nic.mac1609_4 	delayMedio 	0.006018047495
scalar RSUExampleScenario2.node[28].nic.mac1609_4 	throughputMedioBPS 	680619.42073449
scalar RSUExampleScenario2.node[33].nic.mac1609_4 	TotalLostPackets 	0
scalar RSUExampleScenario2.node[33].nic.mac1609_4 	delayMedio 	0.00076660107
scalar RSUExampleScenario2.node[33].nic.mac1609_4 	throughputMedioBPS 	5343065.8539528
scalar RSUExampleScenario2.node[1].nic.mac1609_4 	TotalLostPackets 	220
scalar RSUExampleScenario2.node[1].nic.mac1609_4 	delayMedio 	0.005150867398
scalar RSUExampleScenario2.node[1].nic.mac1609_4 	throughputMedioBPS 	795205.87189055
scalar RSUExampleScenario2.node[29].nic.mac1609_4 	TotalLostPackets 	0
scalar RSUExampleScenario2.node[29].nic.mac1609_4 	delayMedio 	0.005323199754
scalar RSUExampleScenario2.node[29].nic.mac1609_4 	throughputMedioBPS 	769462.01325147
scalar RSUExampleScenario2.node[34].nic.mac1609_4 	TotalLostPackets 	0
scalar RSUExampleScenario2.node[34].nic.mac1609_4 	delayMedio 	0.000766895493
scalar RSUExampleScenario2.node[34].nic.mac1609_4 	throughputMedioBPS 	5341014.5684099
scalar RSUExampleScenario2.node[9].nic.mac1609_4 	TotalLostPackets 	220
scalar RSUExampleScenario2.node[9].nic.mac1609_4 	delayMedio 	0.005447855399
scalar RSUExampleScenario2.node[9].nic.mac1609_4 	throughputMedioBPS 	751855.49168939
scalar RSUExampleScenario2.node[15].nic.mac1609_4 	TotalLostPackets 	0
scalar RSUExampleScenario2.node[15].nic.mac1609_4 	delayMedio 	0.005876777132
scalar RSUExampleScenario2.node[15].nic.mac1609_4 	throughputMedioBPS 	696980.65932892
scalar RSUExampleScenario2.node[20].nic.mac1609_4 	TotalLostPackets 	0
scalar RSUExampleScenario2.node[20].nic.mac1609_4 	delayMedio 	0.003143170154
scalar RSUExampleScenario2.node[20].nic.mac1609_4 	throughputMedioBPS 	1303142.9414114
scalar RSUExampleScenario2.node[23].nic.mac1609_4 	TotalLostPackets 	32
scalar RSUExampleScenario2.node[23].nic.mac1609_4 	delayMedio 	0.004229838533
scalar RSUExampleScenario2.node[23].nic.mac1609_4 	throughputMedioBPS 	968358.47711674
scalar RSUExampleScenario2.node[25].nic.mac1609_4 	TotalLostPackets 	0
scalar RSUExampleScenario2.node[25].nic.mac1609_4 	delayMedio 	0.004904698044
scalar RSUExampleScenario2.node[25].nic.mac1609_4 	throughputMedioBPS 	835117.66954514
scalar RSUExampleScenario2.node[4].nic.mac1609_4 	TotalLostPackets 	220
scalar RSUExampleScenario2.node[4].nic.mac1609_4 	delayMedio 	0.005214898952
scalar RSUExampleScenario2.node[4].nic.mac1609_4 	throughputMedioBPS 	785441.87291277
scalar RSUExampleScenario2.node[19].nic.mac1609_4 	TotalLostPackets 	0
scalar RSUExampleScenario2.node[19].nic.mac1609_4 	delayMedio 	0.003711003665
scalar RSUExampleScenario2.node[19].nic.mac1609_4 	throughputMedioBPS 	1103744.5310588
scalar RSUExampleScenario2.node[21].nic.mac1609_4 	TotalLostPackets 	160
scalar RSUExampleScenario2.node[21].nic.mac1609_4 	delayMedio 	0.003952106733
scalar RSUExampleScenario2.node[21].nic.mac1609_4 	throughputMedioBPS 	1036409.2562963
scalar RSUExampleScenario2.node[24].nic.mac1609_4 	TotalLostPackets 	0
scalar RSUExampleScenario2.node[24].nic.mac1609_4 	delayMedio 	0.003571993866
scalar RSUExampleScenario2.node[24].nic.mac1609_4 	throughputMedioBPS 	1146698.497831
scalar RSUExampleScenario2.node[26].nic.mac1609_4 	TotalLostPackets 	0
scalar RSUExampleScenario2.node[26].nic.mac1609_4 	delayMedio 	0.005229586981
scalar RSUExampleScenario2.node[26].nic.mac1609_4 	throughputMedioBPS 	783235.84915112
scalar RSUExampleScenario2.node[30].nic.mac1609_4 	TotalLostPackets 	0
scalar RSUExampleScenario2.node[30].nic.mac1609_4 	delayMedio 	0.005496484645
scalar RSUExampleScenario2.node[30].nic.mac1609_4 	throughputMedioBPS 	745203.5736963
scalar RSUExampleScenario2.node[31].nic.mac1609_4 	TotalLostPackets 	0
scalar RSUExampleScenario2.node[31].nic.mac1609_4 	delayMedio 	0.006433012074
scalar RSUExampleScenario2.node[31].nic.mac1609_4 	throughputMedioBPS 	636715.73329333
scalar RSUExampleScenario2.node[32].nic.mac1609_4 	TotalLostPackets 	0
scalar RSUExampleScenario2.node[32].nic.mac1609_4 	delayMedio 	0.00077451792
scalar RSUExampleScenario2.node[32].nic.mac1609_4 	throughputMedioBPS 	5288450.9148123
scalar RSUExampleScenario2.node[35].nic.mac1609_4 	TotalLostPackets 	0
scalar RSUExampleScenario2.node[35].nic.mac1609_4 	delayMedio 	0.00076613313
scalar RSUExampleScenario2.node[35].nic.mac1609_4 	throughputMedioBPS 	5346329.3026803
scalar RSUExampleScenario2.node[10].nic.mac1609_4 	TotalLostPackets 	220
scalar RSUExampleScenario2.node[10].nic.mac1609_4 	delayMedio 	0.005558386886
scalar RSUExampleScenario2.node[10].nic.mac1609_4 	throughputMedioBPS 	736904.44439806
scalar RSUExampleScenario2.node[13].nic.mac1609_4 	TotalLostPackets 	110
scalar RSUExampleScenario2.node[13].nic.mac1609_4 	delayMedio 	0.005780465439
scalar RSUExampleScenario2.node[13].nic.mac1609_4 	throughputMedioBPS 	708593.45901082
scalar RSUExampleScenario2.node[16].nic.mac1609_4 	TotalLostPackets 	220
scalar RSUExampleScenario2.node[16].nic.mac1609_4 	delayMedio 	0.003782767373
scalar RSUExampleScenario2.node[16].nic.mac1609_4 	throughputMedioBPS 	1082805.1520327
