version 2
run v1-136-20171206-21:04:32-853
attr configname v1
attr cwmax 1024
attr cwmin 64
attr datetime 20171206-21:04:32
attr experiment v1
attr inifile omnetpp.ini
attr iterationvars "$cwmin=64, $cwmax=1024, $slotlength=90, $txPower=50.12"
attr iterationvars2 "$cwmin=64, $cwmax=1024, $slotlength=90, $txPower=50.12, $repetition=0"
attr measurement "$cwmin=64, $cwmax=1024, $slotlength=90, $txPower=50.12"
attr network RSUExampleScenario2
attr processid 853
attr repetition 0
attr replication #0
attr resultdir results
attr runnumber 136
attr seedset 136
attr slotlength 90
attr txPower 50.12
param **.coreDebug true
param **.debug true
param *.**.nic.mac1609_4.bitrate 6Mbps
param *.**.nic.mac1609_4.cwmax_ ${cwmax=1024}
param *.**.nic.mac1609_4.cwmin_ ${cwmin=64}
param *.**.nic.mac1609_4.slotlength_ "${slotlength=40..100 step 5}ms"
param *.**.nic.mac1609_4.txPower "${txPower=1.26, 2.51, 3.98, 10, 15.85, 25.12, 50.12, 100, 251.19, 501.19, 794.33, 1258.93, 1584.89}mW"
param *.**.nic.mac1609_4.useServiceChannel false
param *.**.nic.phy80211p.analogueModels "xmldoc(\"config.xml\")"
param *.**.nic.phy80211p.decider "xmldoc(\"config.xml\")"
param *.**.nic.phy80211p.sensitivity -89dBm
param *.**.nic.phy80211p.thermalNoise -110dBm
param *.**.nic.phy80211p.usePropagationDelay true
param *.**.nic.phy80211p.useThermalNoise true
param *.annotations.draw false
param *.connectionManager.alpha 2.0
param *.connectionManager.carrierFrequency "5.890e9 Hz"
param *.connectionManager.drawMaxIntfDist false
param *.connectionManager.maxInterfDist 2600m
param *.connectionManager.pMax 20mW
param *.connectionManager.sat -89dBm
param *.connectionManager.sendDirect true
param *.manager.autoShutdown true
param *.manager.host "\"localhost\""
param *.manager.launchConfig "xmldoc(\"osm.launchd.xml\")"
param *.manager.margin 25
param *.manager.moduleDisplayString "\"\""
param *.manager.moduleName "\"node\""
param *.manager.moduleType "\"org.car2x.veins.nodes.Car\""
param *.manager.port 9999
param *.manager.updateInterval 1s
param *.node[*].appl.beaconInterval "0.1 s"
param *.node[*].appl.beaconLengthBits "3960 bit"
param *.node[*].appl.beaconPriority 3
param *.node[*].appl.dataLengthBits "3960 bit"
param *.node[*].appl.dataOnSch false
param *.node[*].appl.dataPriority 2
param *.node[*].appl.debug false
param *.node[*].appl.headerLength "80 bit"
param *.node[*].appl.maxOffset "0.005 s"
param *.node[*].appl.sendBeacons true
param *.node[*].appl.sendData false
param *.node[*].applType "\"TraCIDemo11p\""
param *.node[*].mobilityType "\"TraCIMobility\""
param *.node[*].mobilityType.debug true
param *.node[*].veinsmobility.x 0
param *.node[*].veinsmobility.y 0
param *.node[*].veinsmobility.z 1.895
param *.node[*].veinsmobilityType "\"org.car2x.veins.modules.mobility.traci.TraCIMobility\""
param *.node[*].veinsmobilityType.debug true
param *.obstacles.debug false
param *.playgroundSizeX 2000m
param *.playgroundSizeY 2000m
param *.playgroundSizeZ 50m
param *.world.use2D false
param *.world.useTorus false

scalar . 	cwmax 	1024
scalar . 	cwmin 	64
scalar . 	slotlength 	90
scalar . 	txPower 	50.12
scalar RSUExampleScenario2.node[6].nic.mac1609_4 	TotalLostPackets 	0
scalar RSUExampleScenario2.node[6].nic.mac1609_4 	delayMedio 	0.000802333089
scalar RSUExampleScenario2.node[6].nic.mac1609_4 	throughputMedioBPS 	5105111.6505599
scalar RSUExampleScenario2.node[5].nic.mac1609_4 	TotalLostPackets 	382
scalar RSUExampleScenario2.node[5].nic.mac1609_4 	delayMedio 	0.004557016892
scalar RSUExampleScenario2.node[5].nic.mac1609_4 	throughputMedioBPS 	898833.62239488
scalar RSUExampleScenario2.node[0].nic.mac1609_4 	TotalLostPackets 	383
scalar RSUExampleScenario2.node[0].nic.mac1609_4 	delayMedio 	0.004443652529
scalar RSUExampleScenario2.node[0].nic.mac1609_4 	throughputMedioBPS 	921764.24093947
scalar RSUExampleScenario2.node[14].nic.mac1609_4 	TotalLostPackets 	1032
scalar RSUExampleScenario2.node[14].nic.mac1609_4 	delayMedio 	0.006692351979
scalar RSUExampleScenario2.node[14].nic.mac1609_4 	throughputMedioBPS 	612041.92675237
scalar RSUExampleScenario2.node[7].nic.mac1609_4 	TotalLostPackets 	473
scalar RSUExampleScenario2.node[7].nic.mac1609_4 	delayMedio 	0.006384222775
scalar RSUExampleScenario2.node[7].nic.mac1609_4 	throughputMedioBPS 	641581.62147514
scalar RSUExampleScenario2.node[2].nic.mac1609_4 	TotalLostPackets 	843
scalar RSUExampleScenario2.node[2].nic.mac1609_4 	delayMedio 	0.005615732494
scalar RSUExampleScenario2.node[2].nic.mac1609_4 	throughputMedioBPS 	729379.47173741
scalar RSUExampleScenario2.node[8].nic.mac1609_4 	TotalLostPackets 	689
scalar RSUExampleScenario2.node[8].nic.mac1609_4 	delayMedio 	0.007124719268
scalar RSUExampleScenario2.node[8].nic.mac1609_4 	throughputMedioBPS 	574899.84462602
scalar RSUExampleScenario2.node[3].nic.mac1609_4 	TotalLostPackets 	1494
scalar RSUExampleScenario2.node[3].nic.mac1609_4 	delayMedio 	0.005237580632
scalar RSUExampleScenario2.node[3].nic.mac1609_4 	throughputMedioBPS 	782040.46633906
scalar RSUExampleScenario2.node[11].nic.mac1609_4 	TotalLostPackets 	442
scalar RSUExampleScenario2.node[11].nic.mac1609_4 	delayMedio 	0.00523522553
scalar RSUExampleScenario2.node[11].nic.mac1609_4 	throughputMedioBPS 	782392.27263854
scalar RSUExampleScenario2.node[17].nic.mac1609_4 	TotalLostPackets 	729
scalar RSUExampleScenario2.node[17].nic.mac1609_4 	delayMedio 	0.003479416655
scalar RSUExampleScenario2.node[17].nic.mac1609_4 	throughputMedioBPS 	1177208.8272209
scalar RSUExampleScenario2.node[27].nic.mac1609_4 	TotalLostPackets 	507
scalar RSUExampleScenario2.node[27].nic.mac1609_4 	delayMedio 	0.007349345568
scalar RSUExampleScenario2.node[27].nic.mac1609_4 	throughputMedioBPS 	557328.53517738
scalar RSUExampleScenario2.node[12].nic.mac1609_4 	TotalLostPackets 	417
scalar RSUExampleScenario2.node[12].nic.mac1609_4 	delayMedio 	0.005308916105
scalar RSUExampleScenario2.node[12].nic.mac1609_4 	throughputMedioBPS 	771532.25236007
scalar RSUExampleScenario2.node[18].nic.mac1609_4 	TotalLostPackets 	740
scalar RSUExampleScenario2.node[18].nic.mac1609_4 	delayMedio 	0.004237069022
scalar RSUExampleScenario2.node[18].nic.mac1609_4 	throughputMedioBPS 	966705.98919144
scalar RSUExampleScenario2.node[22].nic.mac1609_4 	TotalLostPackets 	770
scalar RSUExampleScenario2.node[22].nic.mac1609_4 	delayMedio 	0.005083117257
scalar RSUExampleScenario2.node[22].nic.mac1609_4 	throughputMedioBPS 	805804.74400763
scalar RSUExampleScenario2.node[28].nic.mac1609_4 	TotalLostPackets 	637
scalar RSUExampleScenario2.node[28].nic.mac1609_4 	delayMedio 	0.007484346871
scalar RSUExampleScenario2.node[28].nic.mac1609_4 	throughputMedioBPS 	547275.54328131
scalar RSUExampleScenario2.node[33].nic.mac1609_4 	TotalLostPackets 	81
scalar RSUExampleScenario2.node[33].nic.mac1609_4 	delayMedio 	0.000872088651
scalar RSUExampleScenario2.node[33].nic.mac1609_4 	throughputMedioBPS 	4696770.2160722
scalar RSUExampleScenario2.node[1].nic.mac1609_4 	TotalLostPackets 	1493
scalar RSUExampleScenario2.node[1].nic.mac1609_4 	delayMedio 	0.005193034274
scalar RSUExampleScenario2.node[1].nic.mac1609_4 	throughputMedioBPS 	788748.88625427
scalar RSUExampleScenario2.node[29].nic.mac1609_4 	TotalLostPackets 	487
scalar RSUExampleScenario2.node[29].nic.mac1609_4 	delayMedio 	0.00719295299
scalar RSUExampleScenario2.node[29].nic.mac1609_4 	throughputMedioBPS 	569446.2351742
scalar RSUExampleScenario2.node[34].nic.mac1609_4 	TotalLostPackets 	160
scalar RSUExampleScenario2.node[34].nic.mac1609_4 	delayMedio 	0.000807503674
scalar RSUExampleScenario2.node[34].nic.mac1609_4 	throughputMedioBPS 	5072422.739087
scalar RSUExampleScenario2.node[9].nic.mac1609_4 	TotalLostPackets 	1001
scalar RSUExampleScenario2.node[9].nic.mac1609_4 	delayMedio 	0.004986508181
scalar RSUExampleScenario2.node[9].nic.mac1609_4 	throughputMedioBPS 	821416.48041949
scalar RSUExampleScenario2.node[15].nic.mac1609_4 	TotalLostPackets 	397
scalar RSUExampleScenario2.node[15].nic.mac1609_4 	delayMedio 	0.006314640679
scalar RSUExampleScenario2.node[15].nic.mac1609_4 	throughputMedioBPS 	648651.31811188
scalar RSUExampleScenario2.node[20].nic.mac1609_4 	TotalLostPackets 	280
scalar RSUExampleScenario2.node[20].nic.mac1609_4 	delayMedio 	0.00449454326
scalar RSUExampleScenario2.node[20].nic.mac1609_4 	throughputMedioBPS 	911327.30586385
scalar RSUExampleScenario2.node[23].nic.mac1609_4 	TotalLostPackets 	831
scalar RSUExampleScenario2.node[23].nic.mac1609_4 	delayMedio 	0.005140678777
scalar RSUExampleScenario2.node[23].nic.mac1609_4 	throughputMedioBPS 	796781.93826773
scalar RSUExampleScenario2.node[25].nic.mac1609_4 	TotalLostPackets 	840
scalar RSUExampleScenario2.node[25].nic.mac1609_4 	delayMedio 	0.005595069016
scalar RSUExampleScenario2.node[25].nic.mac1609_4 	throughputMedioBPS 	732073.18598175
scalar RSUExampleScenario2.node[4].nic.mac1609_4 	TotalLostPackets 	1505
scalar RSUExampleScenario2.node[4].nic.mac1609_4 	delayMedio 	0.005273613969
scalar RSUExampleScenario2.node[4].nic.mac1609_4 	throughputMedioBPS 	776696.97179961
scalar RSUExampleScenario2.node[19].nic.mac1609_4 	TotalLostPackets 	331
scalar RSUExampleScenario2.node[19].nic.mac1609_4 	delayMedio 	0.004187222492
scalar RSUExampleScenario2.node[19].nic.mac1609_4 	throughputMedioBPS 	978214.08049024
scalar RSUExampleScenario2.node[21].nic.mac1609_4 	TotalLostPackets 	1000
scalar RSUExampleScenario2.node[21].nic.mac1609_4 	delayMedio 	0.004071372454
scalar RSUExampleScenario2.node[21].nic.mac1609_4 	throughputMedioBPS 	1006048.9542374
scalar RSUExampleScenario2.node[24].nic.mac1609_4 	TotalLostPackets 	270
scalar RSUExampleScenario2.node[24].nic.mac1609_4 	delayMedio 	0.005057004854
scalar RSUExampleScenario2.node[24].nic.mac1609_4 	throughputMedioBPS 	809965.60571977
scalar RSUExampleScenario2.node[26].nic.mac1609_4 	TotalLostPackets 	834
scalar RSUExampleScenario2.node[26].nic.mac1609_4 	delayMedio 	0.006562342075
scalar RSUExampleScenario2.node[26].nic.mac1609_4 	throughputMedioBPS 	624167.4014278
scalar RSUExampleScenario2.node[30].nic.mac1609_4 	TotalLostPackets 	610
scalar RSUExampleScenario2.node[30].nic.mac1609_4 	delayMedio 	0.005839744994
scalar RSUExampleScenario2.node[30].nic.mac1609_4 	throughputMedioBPS 	701400.4899766
scalar RSUExampleScenario2.node[31].nic.mac1609_4 	TotalLostPackets 	380
scalar RSUExampleScenario2.node[31].nic.mac1609_4 	delayMedio 	0.008849621021
scalar RSUExampleScenario2.node[31].nic.mac1609_4 	throughputMedioBPS 	462844.6789253
scalar RSUExampleScenario2.node[32].nic.mac1609_4 	TotalLostPackets 	360
scalar RSUExampleScenario2.node[32].nic.mac1609_4 	delayMedio 	0.000781548462
scalar RSUExampleScenario2.node[32].nic.mac1609_4 	throughputMedioBPS 	5240877.8210458
scalar RSUExampleScenario2.node[35].nic.mac1609_4 	TotalLostPackets 	60
scalar RSUExampleScenario2.node[35].nic.mac1609_4 	delayMedio 	0.000816936571
scalar RSUExampleScenario2.node[35].nic.mac1609_4 	throughputMedioBPS 	5013853.1491503
scalar RSUExampleScenario2.node[10].nic.mac1609_4 	TotalLostPackets 	941
scalar RSUExampleScenario2.node[10].nic.mac1609_4 	delayMedio 	0.004807891635
scalar RSUExampleScenario2.node[10].nic.mac1609_4 	throughputMedioBPS 	851932.67875842
scalar RSUExampleScenario2.node[13].nic.mac1609_4 	TotalLostPackets 	410
scalar RSUExampleScenario2.node[13].nic.mac1609_4 	delayMedio 	0.00537036686
scalar RSUExampleScenario2.node[13].nic.mac1609_4 	throughputMedioBPS 	762703.94686856
scalar RSUExampleScenario2.node[16].nic.mac1609_4 	TotalLostPackets 	931
scalar RSUExampleScenario2.node[16].nic.mac1609_4 	delayMedio 	0.003744225496
scalar RSUExampleScenario2.node[16].nic.mac1609_4 	throughputMedioBPS 	1093951.2067399
