version 2
run v1-122-20171206-20:00:18-853
attr configname v1
attr cwmax 1024
attr cwmin 64
attr datetime 20171206-20:00:18
attr experiment v1
attr inifile omnetpp.ini
attr iterationvars "$cwmin=64, $cwmax=1024, $slotlength=85, $txPower=25.12"
attr iterationvars2 "$cwmin=64, $cwmax=1024, $slotlength=85, $txPower=25.12, $repetition=0"
attr measurement "$cwmin=64, $cwmax=1024, $slotlength=85, $txPower=25.12"
attr network RSUExampleScenario2
attr processid 853
attr repetition 0
attr replication #0
attr resultdir results
attr runnumber 122
attr seedset 122
attr slotlength 85
attr txPower 25.12
param **.coreDebug true
param **.debug true
param *.**.nic.mac1609_4.bitrate 6Mbps
param *.**.nic.mac1609_4.cwmax_ ${cwmax=1024}
param *.**.nic.mac1609_4.cwmin_ ${cwmin=64}
param *.**.nic.mac1609_4.slotlength_ "${slotlength=40..100 step 5}ms"
param *.**.nic.mac1609_4.txPower "${txPower=1.26, 2.51, 3.98, 10, 15.85, 25.12, 50.12, 100, 251.19, 501.19, 794.33, 1258.93, 1584.89}mW"
param *.**.nic.mac1609_4.useServiceChannel false
param *.**.nic.phy80211p.analogueModels "xmldoc(\"config.xml\")"
param *.**.nic.phy80211p.decider "xmldoc(\"config.xml\")"
param *.**.nic.phy80211p.sensitivity -89dBm
param *.**.nic.phy80211p.thermalNoise -110dBm
param *.**.nic.phy80211p.usePropagationDelay true
param *.**.nic.phy80211p.useThermalNoise true
param *.annotations.draw false
param *.connectionManager.alpha 2.0
param *.connectionManager.carrierFrequency "5.890e9 Hz"
param *.connectionManager.drawMaxIntfDist false
param *.connectionManager.maxInterfDist 2600m
param *.connectionManager.pMax 20mW
param *.connectionManager.sat -89dBm
param *.connectionManager.sendDirect true
param *.manager.autoShutdown true
param *.manager.host "\"localhost\""
param *.manager.launchConfig "xmldoc(\"osm.launchd.xml\")"
param *.manager.margin 25
param *.manager.moduleDisplayString "\"\""
param *.manager.moduleName "\"node\""
param *.manager.moduleType "\"org.car2x.veins.nodes.Car\""
param *.manager.port 9999
param *.manager.updateInterval 1s
param *.node[*].appl.beaconInterval "0.1 s"
param *.node[*].appl.beaconLengthBits "3960 bit"
param *.node[*].appl.beaconPriority 3
param *.node[*].appl.dataLengthBits "3960 bit"
param *.node[*].appl.dataOnSch false
param *.node[*].appl.dataPriority 2
param *.node[*].appl.debug false
param *.node[*].appl.headerLength "80 bit"
param *.node[*].appl.maxOffset "0.005 s"
param *.node[*].appl.sendBeacons true
param *.node[*].appl.sendData false
param *.node[*].applType "\"TraCIDemo11p\""
param *.node[*].mobilityType "\"TraCIMobility\""
param *.node[*].mobilityType.debug true
param *.node[*].veinsmobility.x 0
param *.node[*].veinsmobility.y 0
param *.node[*].veinsmobility.z 1.895
param *.node[*].veinsmobilityType "\"org.car2x.veins.modules.mobility.traci.TraCIMobility\""
param *.node[*].veinsmobilityType.debug true
param *.obstacles.debug false
param *.playgroundSizeX 2000m
param *.playgroundSizeY 2000m
param *.playgroundSizeZ 50m
param *.world.use2D false
param *.world.useTorus false

scalar . 	cwmax 	1024
scalar . 	cwmin 	64
scalar . 	slotlength 	85
scalar . 	txPower 	25.12
scalar RSUExampleScenario2.node[6].nic.mac1609_4 	TotalLostPackets 	0
scalar RSUExampleScenario2.node[6].nic.mac1609_4 	delayMedio 	0.000722477201
scalar RSUExampleScenario2.node[6].nic.mac1609_4 	throughputMedioBPS 	5669383.0536529
scalar RSUExampleScenario2.node[5].nic.mac1609_4 	TotalLostPackets 	10
scalar RSUExampleScenario2.node[5].nic.mac1609_4 	delayMedio 	0.004981524031
scalar RSUExampleScenario2.node[5].nic.mac1609_4 	throughputMedioBPS 	822238.33004683
scalar RSUExampleScenario2.node[0].nic.mac1609_4 	TotalLostPackets 	262
scalar RSUExampleScenario2.node[0].nic.mac1609_4 	delayMedio 	0.005111285167
scalar RSUExampleScenario2.node[0].nic.mac1609_4 	throughputMedioBPS 	801364.01435597
scalar RSUExampleScenario2.node[14].nic.mac1609_4 	TotalLostPackets 	89
scalar RSUExampleScenario2.node[14].nic.mac1609_4 	delayMedio 	0.006632538805
scalar RSUExampleScenario2.node[14].nic.mac1609_4 	throughputMedioBPS 	617561.40757446
scalar RSUExampleScenario2.node[7].nic.mac1609_4 	TotalLostPackets 	50
scalar RSUExampleScenario2.node[7].nic.mac1609_4 	delayMedio 	0.006961854483
scalar RSUExampleScenario2.node[7].nic.mac1609_4 	throughputMedioBPS 	588348.98230404
scalar RSUExampleScenario2.node[2].nic.mac1609_4 	TotalLostPackets 	497
scalar RSUExampleScenario2.node[2].nic.mac1609_4 	delayMedio 	0.008002830873
scalar RSUExampleScenario2.node[2].nic.mac1609_4 	throughputMedioBPS 	511818.88824525
scalar RSUExampleScenario2.node[8].nic.mac1609_4 	TotalLostPackets 	574
scalar RSUExampleScenario2.node[8].nic.mac1609_4 	delayMedio 	0.00841084385
scalar RSUExampleScenario2.node[8].nic.mac1609_4 	throughputMedioBPS 	486990.37491814
scalar RSUExampleScenario2.node[3].nic.mac1609_4 	TotalLostPackets 	43
scalar RSUExampleScenario2.node[3].nic.mac1609_4 	delayMedio 	0.006212851688
scalar RSUExampleScenario2.node[3].nic.mac1609_4 	throughputMedioBPS 	659278.57376228
scalar RSUExampleScenario2.node[11].nic.mac1609_4 	TotalLostPackets 	1040
scalar RSUExampleScenario2.node[11].nic.mac1609_4 	delayMedio 	0.008323870964
scalar RSUExampleScenario2.node[11].nic.mac1609_4 	throughputMedioBPS 	492078.74767553
scalar RSUExampleScenario2.node[17].nic.mac1609_4 	TotalLostPackets 	116
scalar RSUExampleScenario2.node[17].nic.mac1609_4 	delayMedio 	0.005556461437
scalar RSUExampleScenario2.node[17].nic.mac1609_4 	throughputMedioBPS 	737159.79965653
scalar RSUExampleScenario2.node[27].nic.mac1609_4 	TotalLostPackets 	481
scalar RSUExampleScenario2.node[27].nic.mac1609_4 	delayMedio 	0.010086540048
scalar RSUExampleScenario2.node[27].nic.mac1609_4 	throughputMedioBPS 	406085.7321058
scalar RSUExampleScenario2.node[12].nic.mac1609_4 	TotalLostPackets 	1070
scalar RSUExampleScenario2.node[12].nic.mac1609_4 	delayMedio 	0.008370028444
scalar RSUExampleScenario2.node[12].nic.mac1609_4 	throughputMedioBPS 	489365.12312501
scalar RSUExampleScenario2.node[18].nic.mac1609_4 	TotalLostPackets 	476
scalar RSUExampleScenario2.node[18].nic.mac1609_4 	delayMedio 	0.004190300653
scalar RSUExampleScenario2.node[18].nic.mac1609_4 	throughputMedioBPS 	977495.49227363
scalar RSUExampleScenario2.node[22].nic.mac1609_4 	TotalLostPackets 	355
scalar RSUExampleScenario2.node[22].nic.mac1609_4 	delayMedio 	0.006984248049
scalar RSUExampleScenario2.node[22].nic.mac1609_4 	throughputMedioBPS 	586462.56132802
scalar RSUExampleScenario2.node[28].nic.mac1609_4 	TotalLostPackets 	190
scalar RSUExampleScenario2.node[28].nic.mac1609_4 	delayMedio 	0.00814219218
scalar RSUExampleScenario2.node[28].nic.mac1609_4 	throughputMedioBPS 	503058.62467971
scalar RSUExampleScenario2.node[33].nic.mac1609_4 	TotalLostPackets 	0
scalar RSUExampleScenario2.node[33].nic.mac1609_4 	delayMedio 	0.000802988828
scalar RSUExampleScenario2.node[33].nic.mac1609_4 	throughputMedioBPS 	5100942.7012481
scalar RSUExampleScenario2.node[1].nic.mac1609_4 	TotalLostPackets 	31
scalar RSUExampleScenario2.node[1].nic.mac1609_4 	delayMedio 	0.006103194187
scalar RSUExampleScenario2.node[1].nic.mac1609_4 	throughputMedioBPS 	671123.98432536
scalar RSUExampleScenario2.node[29].nic.mac1609_4 	TotalLostPackets 	1
scalar RSUExampleScenario2.node[29].nic.mac1609_4 	delayMedio 	0.00868627801
scalar RSUExampleScenario2.node[29].nic.mac1609_4 	throughputMedioBPS 	471548.34270877
scalar RSUExampleScenario2.node[34].nic.mac1609_4 	TotalLostPackets 	0
scalar RSUExampleScenario2.node[34].nic.mac1609_4 	delayMedio 	0.000795675585
scalar RSUExampleScenario2.node[34].nic.mac1609_4 	throughputMedioBPS 	5147826.6732347
scalar RSUExampleScenario2.node[9].nic.mac1609_4 	TotalLostPackets 	156
scalar RSUExampleScenario2.node[9].nic.mac1609_4 	delayMedio 	0.006197748803
scalar RSUExampleScenario2.node[9].nic.mac1609_4 	throughputMedioBPS 	660885.12623889
scalar RSUExampleScenario2.node[15].nic.mac1609_4 	TotalLostPackets 	731
scalar RSUExampleScenario2.node[15].nic.mac1609_4 	delayMedio 	0.008909243907
scalar RSUExampleScenario2.node[15].nic.mac1609_4 	throughputMedioBPS 	459747.20670314
scalar RSUExampleScenario2.node[20].nic.mac1609_4 	TotalLostPackets 	19
scalar RSUExampleScenario2.node[20].nic.mac1609_4 	delayMedio 	0.003104423244
scalar RSUExampleScenario2.node[20].nic.mac1609_4 	throughputMedioBPS 	1319407.7217742
scalar RSUExampleScenario2.node[23].nic.mac1609_4 	TotalLostPackets 	341
scalar RSUExampleScenario2.node[23].nic.mac1609_4 	delayMedio 	0.006464729434
scalar RSUExampleScenario2.node[23].nic.mac1609_4 	throughputMedioBPS 	633591.86824925
scalar RSUExampleScenario2.node[25].nic.mac1609_4 	TotalLostPackets 	98
scalar RSUExampleScenario2.node[25].nic.mac1609_4 	delayMedio 	0.00492507943
scalar RSUExampleScenario2.node[25].nic.mac1609_4 	throughputMedioBPS 	831661.713854
scalar RSUExampleScenario2.node[4].nic.mac1609_4 	TotalLostPackets 	62
scalar RSUExampleScenario2.node[4].nic.mac1609_4 	delayMedio 	0.0063399727
scalar RSUExampleScenario2.node[4].nic.mac1609_4 	throughputMedioBPS 	646059.56430985
scalar RSUExampleScenario2.node[19].nic.mac1609_4 	TotalLostPackets 	724
scalar RSUExampleScenario2.node[19].nic.mac1609_4 	delayMedio 	0.00719684826
scalar RSUExampleScenario2.node[19].nic.mac1609_4 	throughputMedioBPS 	569138.02435103
scalar RSUExampleScenario2.node[21].nic.mac1609_4 	TotalLostPackets 	223
scalar RSUExampleScenario2.node[21].nic.mac1609_4 	delayMedio 	0.005775578007
scalar RSUExampleScenario2.node[21].nic.mac1609_4 	throughputMedioBPS 	709193.08768482
scalar RSUExampleScenario2.node[24].nic.mac1609_4 	TotalLostPackets 	0
scalar RSUExampleScenario2.node[24].nic.mac1609_4 	delayMedio 	0.003170642256
scalar RSUExampleScenario2.node[24].nic.mac1609_4 	throughputMedioBPS 	1291851.8296969
scalar RSUExampleScenario2.node[26].nic.mac1609_4 	TotalLostPackets 	222
scalar RSUExampleScenario2.node[26].nic.mac1609_4 	delayMedio 	0.008064261349
scalar RSUExampleScenario2.node[26].nic.mac1609_4 	throughputMedioBPS 	507920.04657858
scalar RSUExampleScenario2.node[30].nic.mac1609_4 	TotalLostPackets 	64
scalar RSUExampleScenario2.node[30].nic.mac1609_4 	delayMedio 	0.006707591213
scalar RSUExampleScenario2.node[30].nic.mac1609_4 	throughputMedioBPS 	610651.40521433
scalar RSUExampleScenario2.node[31].nic.mac1609_4 	TotalLostPackets 	0
scalar RSUExampleScenario2.node[31].nic.mac1609_4 	delayMedio 	0.01098577966
scalar RSUExampleScenario2.node[31].nic.mac1609_4 	throughputMedioBPS 	372845.63560557
scalar RSUExampleScenario2.node[32].nic.mac1609_4 	TotalLostPackets 	42
scalar RSUExampleScenario2.node[32].nic.mac1609_4 	delayMedio 	0.000791795174
scalar RSUExampleScenario2.node[32].nic.mac1609_4 	throughputMedioBPS 	5173055.0230715
scalar RSUExampleScenario2.node[35].nic.mac1609_4 	TotalLostPackets 	0
scalar RSUExampleScenario2.node[35].nic.mac1609_4 	delayMedio 	0.000790850485
scalar RSUExampleScenario2.node[35].nic.mac1609_4 	throughputMedioBPS 	5179234.3500688
scalar RSUExampleScenario2.node[10].nic.mac1609_4 	TotalLostPackets 	117
scalar RSUExampleScenario2.node[10].nic.mac1609_4 	delayMedio 	0.006639122449
scalar RSUExampleScenario2.node[10].nic.mac1609_4 	throughputMedioBPS 	616949.0066218
scalar RSUExampleScenario2.node[13].nic.mac1609_4 	TotalLostPackets 	1070
scalar RSUExampleScenario2.node[13].nic.mac1609_4 	delayMedio 	0.008417025842
scalar RSUExampleScenario2.node[13].nic.mac1609_4 	throughputMedioBPS 	486632.69865946
scalar RSUExampleScenario2.node[16].nic.mac1609_4 	TotalLostPackets 	143
scalar RSUExampleScenario2.node[16].nic.mac1609_4 	delayMedio 	0.006043419227
scalar RSUExampleScenario2.node[16].nic.mac1609_4 	throughputMedioBPS 	677762.016234
