version 2
run v1-1569-20171205-14:03:00-8763
attr configname v1
attr cwmax 1024
attr cwmin 64
attr datetime 20171205-14:03:00
attr experiment v1
attr inifile omnetpp.ini
attr iterationvars "$cwmin=64, $cwmax=1024, $slotlength=5, $txPower=501.19"
attr iterationvars2 "$cwmin=64, $cwmax=1024, $slotlength=5, $txPower=501.19, $repetition=0"
attr measurement "$cwmin=64, $cwmax=1024, $slotlength=5, $txPower=501.19"
attr network RSUExampleScenario2
attr processid 8763
attr repetition 0
attr replication #0
attr resultdir results
attr runnumber 1569
attr seedset 1569
attr slotlength 5
attr txPower 501.19
param **.coreDebug true
param **.debug true
param *.**.nic.mac1609_4.bitrate 6Mbps
param *.**.nic.mac1609_4.cwmax_ "${cwmax=1024, 2048, 4096}"
param *.**.nic.mac1609_4.cwmin_ "${cwmin=16, 32, 64}"
param *.**.nic.mac1609_4.slotlength_ "${slotlength=5..100 step 5}ms"
param *.**.nic.mac1609_4.txPower "${txPower=1.26, 2.51, 3.98, 10, 15.85, 25.12, 50.12, 100, 251.19, 501.19, 794.33, 1258.93, 1584.89}mW"
param *.**.nic.mac1609_4.useServiceChannel false
param *.**.nic.phy80211p.analogueModels "xmldoc(\"config.xml\")"
param *.**.nic.phy80211p.decider "xmldoc(\"config.xml\")"
param *.**.nic.phy80211p.sensitivity -89dBm
param *.**.nic.phy80211p.thermalNoise -110dBm
param *.**.nic.phy80211p.usePropagationDelay true
param *.**.nic.phy80211p.useThermalNoise true
param *.annotations.draw false
param *.connectionManager.alpha 2.0
param *.connectionManager.carrierFrequency "5.890e9 Hz"
param *.connectionManager.drawMaxIntfDist false
param *.connectionManager.maxInterfDist 2600m
param *.connectionManager.pMax 20mW
param *.connectionManager.sat -89dBm
param *.connectionManager.sendDirect true
param *.manager.autoShutdown true
param *.manager.host "\"localhost\""
param *.manager.launchConfig "xmldoc(\"osm.launchd.xml\")"
param *.manager.margin 25
param *.manager.moduleDisplayString "\"\""
param *.manager.moduleName "\"node\""
param *.manager.moduleType "\"org.car2x.veins.nodes.Car\""
param *.manager.port 9999
param *.manager.updateInterval 1s
param *.node[*].appl.beaconInterval "0.1 s"
param *.node[*].appl.beaconLengthBits "3960 bit"
param *.node[*].appl.beaconPriority 3
param *.node[*].appl.dataLengthBits "3960 bit"
param *.node[*].appl.dataOnSch false
param *.node[*].appl.dataPriority 2
param *.node[*].appl.debug false
param *.node[*].appl.headerLength "80 bit"
param *.node[*].appl.maxOffset "0.005 s"
param *.node[*].appl.sendBeacons true
param *.node[*].appl.sendData false
param *.node[*].applType "\"TraCIDemo11p\""
param *.node[*].mobilityType "\"TraCIMobility\""
param *.node[*].mobilityType.debug true
param *.node[*].veinsmobility.x 0
param *.node[*].veinsmobility.y 0
param *.node[*].veinsmobility.z 1.895
param *.node[*].veinsmobilityType "\"org.car2x.veins.modules.mobility.traci.TraCIMobility\""
param *.node[*].veinsmobilityType.debug true
param *.obstacles.debug false
param *.playgroundSizeX 2000m
param *.playgroundSizeY 2000m
param *.playgroundSizeZ 50m
param *.world.use2D false
param *.world.useTorus false

scalar . 	cwmax 	1024
scalar . 	cwmin 	64
scalar . 	slotlength 	5
scalar . 	txPower 	501.19
scalar RSUExampleScenario2.node[6].nic.mac1609_4 	TotalLostPackets 	0
scalar RSUExampleScenario2.node[6].nic.mac1609_4 	delayMedio 	0.000748065584
scalar RSUExampleScenario2.node[6].nic.mac1609_4 	throughputMedioBPS 	5475455.7448179
scalar RSUExampleScenario2.node[5].nic.mac1609_4 	TotalLostPackets 	0
scalar RSUExampleScenario2.node[5].nic.mac1609_4 	delayMedio 	0.005612451764
scalar RSUExampleScenario2.node[5].nic.mac1609_4 	throughputMedioBPS 	729805.82679487
scalar RSUExampleScenario2.node[0].nic.mac1609_4 	TotalLostPackets 	0
scalar RSUExampleScenario2.node[0].nic.mac1609_4 	delayMedio 	0.005470967673
scalar RSUExampleScenario2.node[0].nic.mac1609_4 	throughputMedioBPS 	748679.25469146
scalar RSUExampleScenario2.node[14].nic.mac1609_4 	TotalLostPackets 	3
scalar RSUExampleScenario2.node[14].nic.mac1609_4 	delayMedio 	0.006685174654
scalar RSUExampleScenario2.node[14].nic.mac1609_4 	throughputMedioBPS 	612699.02612989
scalar RSUExampleScenario2.node[7].nic.mac1609_4 	TotalLostPackets 	2
scalar RSUExampleScenario2.node[7].nic.mac1609_4 	delayMedio 	0.005478296656
scalar RSUExampleScenario2.node[7].nic.mac1609_4 	throughputMedioBPS 	747677.65552179
scalar RSUExampleScenario2.node[2].nic.mac1609_4 	TotalLostPackets 	3
scalar RSUExampleScenario2.node[2].nic.mac1609_4 	delayMedio 	0.005220889203
scalar RSUExampleScenario2.node[2].nic.mac1609_4 	throughputMedioBPS 	784540.68667614
scalar RSUExampleScenario2.node[8].nic.mac1609_4 	TotalLostPackets 	3
scalar RSUExampleScenario2.node[8].nic.mac1609_4 	delayMedio 	0.00538597524
scalar RSUExampleScenario2.node[8].nic.mac1609_4 	throughputMedioBPS 	760493.65576147
scalar RSUExampleScenario2.node[3].nic.mac1609_4 	TotalLostPackets 	3
scalar RSUExampleScenario2.node[3].nic.mac1609_4 	delayMedio 	0.004660213783
scalar RSUExampleScenario2.node[3].nic.mac1609_4 	throughputMedioBPS 	878929.63519155
scalar RSUExampleScenario2.node[11].nic.mac1609_4 	TotalLostPackets 	3
scalar RSUExampleScenario2.node[11].nic.mac1609_4 	delayMedio 	0.005101461084
scalar RSUExampleScenario2.node[11].nic.mac1609_4 	throughputMedioBPS 	802907.23236997
scalar RSUExampleScenario2.node[17].nic.mac1609_4 	TotalLostPackets 	3
scalar RSUExampleScenario2.node[17].nic.mac1609_4 	delayMedio 	0.002951352843
scalar RSUExampleScenario2.node[17].nic.mac1609_4 	throughputMedioBPS 	1387838.1262706
scalar RSUExampleScenario2.node[27].nic.mac1609_4 	TotalLostPackets 	3
scalar RSUExampleScenario2.node[27].nic.mac1609_4 	delayMedio 	0.004816825055
scalar RSUExampleScenario2.node[27].nic.mac1609_4 	throughputMedioBPS 	850352.66037289
scalar RSUExampleScenario2.node[12].nic.mac1609_4 	TotalLostPackets 	3
scalar RSUExampleScenario2.node[12].nic.mac1609_4 	delayMedio 	0.005104759387
scalar RSUExampleScenario2.node[12].nic.mac1609_4 	throughputMedioBPS 	802388.45538433
scalar RSUExampleScenario2.node[18].nic.mac1609_4 	TotalLostPackets 	3
scalar RSUExampleScenario2.node[18].nic.mac1609_4 	delayMedio 	0.00278943085
scalar RSUExampleScenario2.node[18].nic.mac1609_4 	throughputMedioBPS 	1468399.9065199
scalar RSUExampleScenario2.node[22].nic.mac1609_4 	TotalLostPackets 	2
scalar RSUExampleScenario2.node[22].nic.mac1609_4 	delayMedio 	0.003394903327
scalar RSUExampleScenario2.node[22].nic.mac1609_4 	throughputMedioBPS 	1206514.4733168
scalar RSUExampleScenario2.node[28].nic.mac1609_4 	TotalLostPackets 	3
scalar RSUExampleScenario2.node[28].nic.mac1609_4 	delayMedio 	0.004814269292
scalar RSUExampleScenario2.node[28].nic.mac1609_4 	throughputMedioBPS 	850804.08919577
scalar RSUExampleScenario2.node[33].nic.mac1609_4 	TotalLostPackets 	0
scalar RSUExampleScenario2.node[33].nic.mac1609_4 	delayMedio 	0.000818420786
scalar RSUExampleScenario2.node[33].nic.mac1609_4 	throughputMedioBPS 	5004760.4740426
scalar RSUExampleScenario2.node[1].nic.mac1609_4 	TotalLostPackets 	3
scalar RSUExampleScenario2.node[1].nic.mac1609_4 	delayMedio 	0.004639215702
scalar RSUExampleScenario2.node[1].nic.mac1609_4 	throughputMedioBPS 	882907.85842446
scalar RSUExampleScenario2.node[29].nic.mac1609_4 	TotalLostPackets 	2
scalar RSUExampleScenario2.node[29].nic.mac1609_4 	delayMedio 	0.004801916199
scalar RSUExampleScenario2.node[29].nic.mac1609_4 	throughputMedioBPS 	852992.81163057
scalar RSUExampleScenario2.node[34].nic.mac1609_4 	TotalLostPackets 	0
scalar RSUExampleScenario2.node[34].nic.mac1609_4 	delayMedio 	0.000817552367
scalar RSUExampleScenario2.node[34].nic.mac1609_4 	throughputMedioBPS 	5010076.6232315
scalar RSUExampleScenario2.node[9].nic.mac1609_4 	TotalLostPackets 	4
scalar RSUExampleScenario2.node[9].nic.mac1609_4 	delayMedio 	0.004899018246
scalar RSUExampleScenario2.node[9].nic.mac1609_4 	throughputMedioBPS 	836085.88380471
scalar RSUExampleScenario2.node[15].nic.mac1609_4 	TotalLostPackets 	2
scalar RSUExampleScenario2.node[15].nic.mac1609_4 	delayMedio 	0.005253990721
scalar RSUExampleScenario2.node[15].nic.mac1609_4 	throughputMedioBPS 	779597.87475188
scalar RSUExampleScenario2.node[20].nic.mac1609_4 	TotalLostPackets 	2
scalar RSUExampleScenario2.node[20].nic.mac1609_4 	delayMedio 	0.003417063134
scalar RSUExampleScenario2.node[20].nic.mac1609_4 	throughputMedioBPS 	1198690.1733545
scalar RSUExampleScenario2.node[23].nic.mac1609_4 	TotalLostPackets 	3
scalar RSUExampleScenario2.node[23].nic.mac1609_4 	delayMedio 	0.003423400974
scalar RSUExampleScenario2.node[23].nic.mac1609_4 	throughputMedioBPS 	1196471.0037669
scalar RSUExampleScenario2.node[25].nic.mac1609_4 	TotalLostPackets 	4
scalar RSUExampleScenario2.node[25].nic.mac1609_4 	delayMedio 	0.003922138962
scalar RSUExampleScenario2.node[25].nic.mac1609_4 	throughputMedioBPS 	1044328.1178055
scalar RSUExampleScenario2.node[4].nic.mac1609_4 	TotalLostPackets 	3
scalar RSUExampleScenario2.node[4].nic.mac1609_4 	delayMedio 	0.00469909324
scalar RSUExampleScenario2.node[4].nic.mac1609_4 	throughputMedioBPS 	871657.52850108
scalar RSUExampleScenario2.node[19].nic.mac1609_4 	TotalLostPackets 	3
scalar RSUExampleScenario2.node[19].nic.mac1609_4 	delayMedio 	0.002972482174
scalar RSUExampleScenario2.node[19].nic.mac1609_4 	throughputMedioBPS 	1377972.9396338
scalar RSUExampleScenario2.node[21].nic.mac1609_4 	TotalLostPackets 	4
scalar RSUExampleScenario2.node[21].nic.mac1609_4 	delayMedio 	0.003177435231
scalar RSUExampleScenario2.node[21].nic.mac1609_4 	throughputMedioBPS 	1289090.0055897
scalar RSUExampleScenario2.node[24].nic.mac1609_4 	TotalLostPackets 	2
scalar RSUExampleScenario2.node[24].nic.mac1609_4 	delayMedio 	0.004008883175
scalar RSUExampleScenario2.node[24].nic.mac1609_4 	throughputMedioBPS 	1021730.9462813
scalar RSUExampleScenario2.node[26].nic.mac1609_4 	TotalLostPackets 	3
scalar RSUExampleScenario2.node[26].nic.mac1609_4 	delayMedio 	0.004190325502
scalar RSUExampleScenario2.node[26].nic.mac1609_4 	throughputMedioBPS 	977489.6957701
scalar RSUExampleScenario2.node[30].nic.mac1609_4 	TotalLostPackets 	4
scalar RSUExampleScenario2.node[30].nic.mac1609_4 	delayMedio 	0.004832503847
scalar RSUExampleScenario2.node[30].nic.mac1609_4 	throughputMedioBPS 	847593.73805175
scalar RSUExampleScenario2.node[31].nic.mac1609_4 	TotalLostPackets 	2
scalar RSUExampleScenario2.node[31].nic.mac1609_4 	delayMedio 	0.005890664608
scalar RSUExampleScenario2.node[31].nic.mac1609_4 	throughputMedioBPS 	695337.4996661
scalar RSUExampleScenario2.node[32].nic.mac1609_4 	TotalLostPackets 	0
scalar RSUExampleScenario2.node[32].nic.mac1609_4 	delayMedio 	0.000798461504
scalar RSUExampleScenario2.node[32].nic.mac1609_4 	throughputMedioBPS 	5129865.3442302
scalar RSUExampleScenario2.node[35].nic.mac1609_4 	TotalLostPackets 	0
scalar RSUExampleScenario2.node[35].nic.mac1609_4 	delayMedio 	0.00084053171
scalar RSUExampleScenario2.node[35].nic.mac1609_4 	throughputMedioBPS 	4873105.8584649
scalar RSUExampleScenario2.node[10].nic.mac1609_4 	TotalLostPackets 	4
scalar RSUExampleScenario2.node[10].nic.mac1609_4 	delayMedio 	0.004988272101
scalar RSUExampleScenario2.node[10].nic.mac1609_4 	throughputMedioBPS 	821126.01659531
scalar RSUExampleScenario2.node[13].nic.mac1609_4 	TotalLostPackets 	3
scalar RSUExampleScenario2.node[13].nic.mac1609_4 	delayMedio 	0.005227116882
scalar RSUExampleScenario2.node[13].nic.mac1609_4 	throughputMedioBPS 	783605.97095755
scalar RSUExampleScenario2.node[16].nic.mac1609_4 	TotalLostPackets 	4
scalar RSUExampleScenario2.node[16].nic.mac1609_4 	delayMedio 	0.003144505819
scalar RSUExampleScenario2.node[16].nic.mac1609_4 	throughputMedioBPS 	1302589.4163396
