version 2
run v1-149-20171206-22:04:55-853
attr configname v1
attr cwmax 1024
attr cwmin 64
attr datetime 20171206-22:04:55
attr experiment v1
attr inifile omnetpp.ini
attr iterationvars "$cwmin=64, $cwmax=1024, $slotlength=95, $txPower=50.12"
attr iterationvars2 "$cwmin=64, $cwmax=1024, $slotlength=95, $txPower=50.12, $repetition=0"
attr measurement "$cwmin=64, $cwmax=1024, $slotlength=95, $txPower=50.12"
attr network RSUExampleScenario2
attr processid 853
attr repetition 0
attr replication #0
attr resultdir results
attr runnumber 149
attr seedset 149
attr slotlength 95
attr txPower 50.12
param **.coreDebug true
param **.debug true
param *.**.nic.mac1609_4.bitrate 6Mbps
param *.**.nic.mac1609_4.cwmax_ ${cwmax=1024}
param *.**.nic.mac1609_4.cwmin_ ${cwmin=64}
param *.**.nic.mac1609_4.slotlength_ "${slotlength=40..100 step 5}ms"
param *.**.nic.mac1609_4.txPower "${txPower=1.26, 2.51, 3.98, 10, 15.85, 25.12, 50.12, 100, 251.19, 501.19, 794.33, 1258.93, 1584.89}mW"
param *.**.nic.mac1609_4.useServiceChannel false
param *.**.nic.phy80211p.analogueModels "xmldoc(\"config.xml\")"
param *.**.nic.phy80211p.decider "xmldoc(\"config.xml\")"
param *.**.nic.phy80211p.sensitivity -89dBm
param *.**.nic.phy80211p.thermalNoise -110dBm
param *.**.nic.phy80211p.usePropagationDelay true
param *.**.nic.phy80211p.useThermalNoise true
param *.annotations.draw false
param *.connectionManager.alpha 2.0
param *.connectionManager.carrierFrequency "5.890e9 Hz"
param *.connectionManager.drawMaxIntfDist false
param *.connectionManager.maxInterfDist 2600m
param *.connectionManager.pMax 20mW
param *.connectionManager.sat -89dBm
param *.connectionManager.sendDirect true
param *.manager.autoShutdown true
param *.manager.host "\"localhost\""
param *.manager.launchConfig "xmldoc(\"osm.launchd.xml\")"
param *.manager.margin 25
param *.manager.moduleDisplayString "\"\""
param *.manager.moduleName "\"node\""
param *.manager.moduleType "\"org.car2x.veins.nodes.Car\""
param *.manager.port 9999
param *.manager.updateInterval 1s
param *.node[*].appl.beaconInterval "0.1 s"
param *.node[*].appl.beaconLengthBits "3960 bit"
param *.node[*].appl.beaconPriority 3
param *.node[*].appl.dataLengthBits "3960 bit"
param *.node[*].appl.dataOnSch false
param *.node[*].appl.dataPriority 2
param *.node[*].appl.debug false
param *.node[*].appl.headerLength "80 bit"
param *.node[*].appl.maxOffset "0.005 s"
param *.node[*].appl.sendBeacons true
param *.node[*].appl.sendData false
param *.node[*].applType "\"TraCIDemo11p\""
param *.node[*].mobilityType "\"TraCIMobility\""
param *.node[*].mobilityType.debug true
param *.node[*].veinsmobility.x 0
param *.node[*].veinsmobility.y 0
param *.node[*].veinsmobility.z 1.895
param *.node[*].veinsmobilityType "\"org.car2x.veins.modules.mobility.traci.TraCIMobility\""
param *.node[*].veinsmobilityType.debug true
param *.obstacles.debug false
param *.playgroundSizeX 2000m
param *.playgroundSizeY 2000m
param *.playgroundSizeZ 50m
param *.world.use2D false
param *.world.useTorus false

scalar . 	cwmax 	1024
scalar . 	cwmin 	64
scalar . 	slotlength 	95
scalar . 	txPower 	50.12
scalar RSUExampleScenario2.node[6].nic.mac1609_4 	TotalLostPackets 	0
scalar RSUExampleScenario2.node[6].nic.mac1609_4 	delayMedio 	0.000723243016
scalar RSUExampleScenario2.node[6].nic.mac1609_4 	throughputMedioBPS 	5663379.9595161
scalar RSUExampleScenario2.node[5].nic.mac1609_4 	TotalLostPackets 	3
scalar RSUExampleScenario2.node[5].nic.mac1609_4 	delayMedio 	0.004335910666
scalar RSUExampleScenario2.node[5].nic.mac1609_4 	throughputMedioBPS 	944668.90944332
scalar RSUExampleScenario2.node[0].nic.mac1609_4 	TotalLostPackets 	4
scalar RSUExampleScenario2.node[0].nic.mac1609_4 	delayMedio 	0.004243419047
scalar RSUExampleScenario2.node[0].nic.mac1609_4 	throughputMedioBPS 	965259.3709995
scalar RSUExampleScenario2.node[14].nic.mac1609_4 	TotalLostPackets 	5
scalar RSUExampleScenario2.node[14].nic.mac1609_4 	delayMedio 	0.007500838566
scalar RSUExampleScenario2.node[14].nic.mac1609_4 	throughputMedioBPS 	546072.27764641
scalar RSUExampleScenario2.node[7].nic.mac1609_4 	TotalLostPackets 	4
scalar RSUExampleScenario2.node[7].nic.mac1609_4 	delayMedio 	0.006954145869
scalar RSUExampleScenario2.node[7].nic.mac1609_4 	throughputMedioBPS 	589001.16233907
scalar RSUExampleScenario2.node[2].nic.mac1609_4 	TotalLostPackets 	119
scalar RSUExampleScenario2.node[2].nic.mac1609_4 	delayMedio 	0.006672117113
scalar RSUExampleScenario2.node[2].nic.mac1609_4 	throughputMedioBPS 	613898.09716711
scalar RSUExampleScenario2.node[8].nic.mac1609_4 	TotalLostPackets 	102
scalar RSUExampleScenario2.node[8].nic.mac1609_4 	delayMedio 	0.008675742648
scalar RSUExampleScenario2.node[8].nic.mac1609_4 	throughputMedioBPS 	472120.9660189
scalar RSUExampleScenario2.node[3].nic.mac1609_4 	TotalLostPackets 	369
scalar RSUExampleScenario2.node[3].nic.mac1609_4 	delayMedio 	0.006033934919
scalar RSUExampleScenario2.node[3].nic.mac1609_4 	throughputMedioBPS 	678827.34154828
scalar RSUExampleScenario2.node[11].nic.mac1609_4 	TotalLostPackets 	159
scalar RSUExampleScenario2.node[11].nic.mac1609_4 	delayMedio 	0.006992629491
scalar RSUExampleScenario2.node[11].nic.mac1609_4 	throughputMedioBPS 	585759.62092357
scalar RSUExampleScenario2.node[17].nic.mac1609_4 	TotalLostPackets 	3
scalar RSUExampleScenario2.node[17].nic.mac1609_4 	delayMedio 	0.004655959388
scalar RSUExampleScenario2.node[17].nic.mac1609_4 	throughputMedioBPS 	879732.75932867
scalar RSUExampleScenario2.node[27].nic.mac1609_4 	TotalLostPackets 	2
scalar RSUExampleScenario2.node[27].nic.mac1609_4 	delayMedio 	0.009954760035
scalar RSUExampleScenario2.node[27].nic.mac1609_4 	throughputMedioBPS 	411461.45015399
scalar RSUExampleScenario2.node[12].nic.mac1609_4 	TotalLostPackets 	178
scalar RSUExampleScenario2.node[12].nic.mac1609_4 	delayMedio 	0.006796524811
scalar RSUExampleScenario2.node[12].nic.mac1609_4 	throughputMedioBPS 	602660.93540171
scalar RSUExampleScenario2.node[18].nic.mac1609_4 	TotalLostPackets 	363
scalar RSUExampleScenario2.node[18].nic.mac1609_4 	delayMedio 	0.005423749224
scalar RSUExampleScenario2.node[18].nic.mac1609_4 	throughputMedioBPS 	755197.15811348
scalar RSUExampleScenario2.node[22].nic.mac1609_4 	TotalLostPackets 	295
scalar RSUExampleScenario2.node[22].nic.mac1609_4 	delayMedio 	0.006548984162
scalar RSUExampleScenario2.node[22].nic.mac1609_4 	throughputMedioBPS 	625440.5109201
scalar RSUExampleScenario2.node[28].nic.mac1609_4 	TotalLostPackets 	305
scalar RSUExampleScenario2.node[28].nic.mac1609_4 	delayMedio 	0.009782227331
scalar RSUExampleScenario2.node[28].nic.mac1609_4 	throughputMedioBPS 	418718.54550079
scalar RSUExampleScenario2.node[33].nic.mac1609_4 	TotalLostPackets 	80
scalar RSUExampleScenario2.node[33].nic.mac1609_4 	delayMedio 	0.00073758539
scalar RSUExampleScenario2.node[33].nic.mac1609_4 	throughputMedioBPS 	5553255.3322995
scalar RSUExampleScenario2.node[1].nic.mac1609_4 	TotalLostPackets 	370
scalar RSUExampleScenario2.node[1].nic.mac1609_4 	delayMedio 	0.005756258052
scalar RSUExampleScenario2.node[1].nic.mac1609_4 	throughputMedioBPS 	711573.38031826
scalar RSUExampleScenario2.node[29].nic.mac1609_4 	TotalLostPackets 	2
scalar RSUExampleScenario2.node[29].nic.mac1609_4 	delayMedio 	0.008958067488
scalar RSUExampleScenario2.node[29].nic.mac1609_4 	throughputMedioBPS 	457241.47598336
scalar RSUExampleScenario2.node[34].nic.mac1609_4 	TotalLostPackets 	0
scalar RSUExampleScenario2.node[34].nic.mac1609_4 	delayMedio 	0.000747307529
scalar RSUExampleScenario2.node[34].nic.mac1609_4 	throughputMedioBPS 	5481009.9501507
scalar RSUExampleScenario2.node[9].nic.mac1609_4 	TotalLostPackets 	137
scalar RSUExampleScenario2.node[9].nic.mac1609_4 	delayMedio 	0.005500907433
scalar RSUExampleScenario2.node[9].nic.mac1609_4 	throughputMedioBPS 	744604.42206303
scalar RSUExampleScenario2.node[15].nic.mac1609_4 	TotalLostPackets 	126
scalar RSUExampleScenario2.node[15].nic.mac1609_4 	delayMedio 	0.007830133477
scalar RSUExampleScenario2.node[15].nic.mac1609_4 	throughputMedioBPS 	523107.30233497
scalar RSUExampleScenario2.node[20].nic.mac1609_4 	TotalLostPackets 	0
scalar RSUExampleScenario2.node[20].nic.mac1609_4 	delayMedio 	0.007197662341
scalar RSUExampleScenario2.node[20].nic.mac1609_4 	throughputMedioBPS 	569073.65279082
scalar RSUExampleScenario2.node[23].nic.mac1609_4 	TotalLostPackets 	365
scalar RSUExampleScenario2.node[23].nic.mac1609_4 	delayMedio 	0.006654228012
scalar RSUExampleScenario2.node[23].nic.mac1609_4 	throughputMedioBPS 	615548.4892454
scalar RSUExampleScenario2.node[25].nic.mac1609_4 	TotalLostPackets 	225
scalar RSUExampleScenario2.node[25].nic.mac1609_4 	delayMedio 	0.006334190607
scalar RSUExampleScenario2.node[25].nic.mac1609_4 	throughputMedioBPS 	646649.3123016
scalar RSUExampleScenario2.node[4].nic.mac1609_4 	TotalLostPackets 	348
scalar RSUExampleScenario2.node[4].nic.mac1609_4 	delayMedio 	0.006086550345
scalar RSUExampleScenario2.node[4].nic.mac1609_4 	throughputMedioBPS 	672959.19166589
scalar RSUExampleScenario2.node[19].nic.mac1609_4 	TotalLostPackets 	161
scalar RSUExampleScenario2.node[19].nic.mac1609_4 	delayMedio 	0.006249893282
scalar RSUExampleScenario2.node[19].nic.mac1609_4 	throughputMedioBPS 	655371.1904223
scalar RSUExampleScenario2.node[21].nic.mac1609_4 	TotalLostPackets 	205
scalar RSUExampleScenario2.node[21].nic.mac1609_4 	delayMedio 	0.00460739627
scalar RSUExampleScenario2.node[21].nic.mac1609_4 	throughputMedioBPS 	889005.36444522
scalar RSUExampleScenario2.node[24].nic.mac1609_4 	TotalLostPackets 	0
scalar RSUExampleScenario2.node[24].nic.mac1609_4 	delayMedio 	0.008412276599
scalar RSUExampleScenario2.node[24].nic.mac1609_4 	throughputMedioBPS 	486907.43245672
scalar RSUExampleScenario2.node[26].nic.mac1609_4 	TotalLostPackets 	365
scalar RSUExampleScenario2.node[26].nic.mac1609_4 	delayMedio 	0.00846807072
scalar RSUExampleScenario2.node[26].nic.mac1609_4 	throughputMedioBPS 	483699.31421868
scalar RSUExampleScenario2.node[30].nic.mac1609_4 	TotalLostPackets 	214
scalar RSUExampleScenario2.node[30].nic.mac1609_4 	delayMedio 	0.007500399473
scalar RSUExampleScenario2.node[30].nic.mac1609_4 	throughputMedioBPS 	546104.24615847
scalar RSUExampleScenario2.node[31].nic.mac1609_4 	TotalLostPackets 	2
scalar RSUExampleScenario2.node[31].nic.mac1609_4 	delayMedio 	0.011082620473
scalar RSUExampleScenario2.node[31].nic.mac1609_4 	throughputMedioBPS 	369587.68100384
scalar RSUExampleScenario2.node[32].nic.mac1609_4 	TotalLostPackets 	60
scalar RSUExampleScenario2.node[32].nic.mac1609_4 	delayMedio 	0.000777428682
scalar RSUExampleScenario2.node[32].nic.mac1609_4 	throughputMedioBPS 	5268650.4842401
scalar RSUExampleScenario2.node[35].nic.mac1609_4 	TotalLostPackets 	60
scalar RSUExampleScenario2.node[35].nic.mac1609_4 	delayMedio 	0.000778742655
scalar RSUExampleScenario2.node[35].nic.mac1609_4 	throughputMedioBPS 	5259760.6817582
scalar RSUExampleScenario2.node[10].nic.mac1609_4 	TotalLostPackets 	2
scalar RSUExampleScenario2.node[10].nic.mac1609_4 	delayMedio 	0.005672092131
scalar RSUExampleScenario2.node[10].nic.mac1609_4 	throughputMedioBPS 	722132.13494497
scalar RSUExampleScenario2.node[13].nic.mac1609_4 	TotalLostPackets 	174
scalar RSUExampleScenario2.node[13].nic.mac1609_4 	delayMedio 	0.007225721536
scalar RSUExampleScenario2.node[13].nic.mac1609_4 	throughputMedioBPS 	566863.80449332
scalar RSUExampleScenario2.node[16].nic.mac1609_4 	TotalLostPackets 	75
scalar RSUExampleScenario2.node[16].nic.mac1609_4 	delayMedio 	0.004219101574
scalar RSUExampleScenario2.node[16].nic.mac1609_4 	throughputMedioBPS 	970822.79921169
