version 2
run v1-837-20171203-05:55:24-8763
attr configname v1
attr cwmax 1024
attr cwmin 32
attr datetime 20171203-05:55:24
attr experiment v1
attr inifile omnetpp.ini
attr iterationvars "$cwmin=32, $cwmax=1024, $slotlength=25, $txPower=25.12"
attr iterationvars2 "$cwmin=32, $cwmax=1024, $slotlength=25, $txPower=25.12, $repetition=0"
attr measurement "$cwmin=32, $cwmax=1024, $slotlength=25, $txPower=25.12"
attr network RSUExampleScenario2
attr processid 8763
attr repetition 0
attr replication #0
attr resultdir results
attr runnumber 837
attr seedset 837
attr slotlength 25
attr txPower 25.12
param **.coreDebug true
param **.debug true
param *.**.nic.mac1609_4.bitrate 6Mbps
param *.**.nic.mac1609_4.cwmax_ "${cwmax=1024, 2048, 4096}"
param *.**.nic.mac1609_4.cwmin_ "${cwmin=16, 32, 64}"
param *.**.nic.mac1609_4.slotlength_ "${slotlength=5..100 step 5}ms"
param *.**.nic.mac1609_4.txPower "${txPower=1.26, 2.51, 3.98, 10, 15.85, 25.12, 50.12, 100, 251.19, 501.19, 794.33, 1258.93, 1584.89}mW"
param *.**.nic.mac1609_4.useServiceChannel false
param *.**.nic.phy80211p.analogueModels "xmldoc(\"config.xml\")"
param *.**.nic.phy80211p.decider "xmldoc(\"config.xml\")"
param *.**.nic.phy80211p.sensitivity -89dBm
param *.**.nic.phy80211p.thermalNoise -110dBm
param *.**.nic.phy80211p.usePropagationDelay true
param *.**.nic.phy80211p.useThermalNoise true
param *.annotations.draw false
param *.connectionManager.alpha 2.0
param *.connectionManager.carrierFrequency "5.890e9 Hz"
param *.connectionManager.drawMaxIntfDist false
param *.connectionManager.maxInterfDist 2600m
param *.connectionManager.pMax 20mW
param *.connectionManager.sat -89dBm
param *.connectionManager.sendDirect true
param *.manager.autoShutdown true
param *.manager.host "\"localhost\""
param *.manager.launchConfig "xmldoc(\"osm.launchd.xml\")"
param *.manager.margin 25
param *.manager.moduleDisplayString "\"\""
param *.manager.moduleName "\"node\""
param *.manager.moduleType "\"org.car2x.veins.nodes.Car\""
param *.manager.port 9999
param *.manager.updateInterval 1s
param *.node[*].appl.beaconInterval "0.1 s"
param *.node[*].appl.beaconLengthBits "3960 bit"
param *.node[*].appl.beaconPriority 3
param *.node[*].appl.dataLengthBits "3960 bit"
param *.node[*].appl.dataOnSch false
param *.node[*].appl.dataPriority 2
param *.node[*].appl.debug false
param *.node[*].appl.headerLength "80 bit"
param *.node[*].appl.maxOffset "0.005 s"
param *.node[*].appl.sendBeacons true
param *.node[*].appl.sendData false
param *.node[*].applType "\"TraCIDemo11p\""
param *.node[*].mobilityType "\"TraCIMobility\""
param *.node[*].mobilityType.debug true
param *.node[*].veinsmobility.x 0
param *.node[*].veinsmobility.y 0
param *.node[*].veinsmobility.z 1.895
param *.node[*].veinsmobilityType "\"org.car2x.veins.modules.mobility.traci.TraCIMobility\""
param *.node[*].veinsmobilityType.debug true
param *.obstacles.debug false
param *.playgroundSizeX 2000m
param *.playgroundSizeY 2000m
param *.playgroundSizeZ 50m
param *.world.use2D false
param *.world.useTorus false

scalar . 	cwmax 	1024
scalar . 	cwmin 	32
scalar . 	slotlength 	25
scalar . 	txPower 	25.12
scalar RSUExampleScenario2.node[6].nic.mac1609_4 	TotalLostPackets 	0
scalar RSUExampleScenario2.node[6].nic.mac1609_4 	delayMedio 	0.000722475083
scalar RSUExampleScenario2.node[6].nic.mac1609_4 	throughputMedioBPS 	5669399.6728329
scalar RSUExampleScenario2.node[5].nic.mac1609_4 	TotalLostPackets 	0
scalar RSUExampleScenario2.node[5].nic.mac1609_4 	delayMedio 	0.004944522229
scalar RSUExampleScenario2.node[5].nic.mac1609_4 	throughputMedioBPS 	828391.46233738
scalar RSUExampleScenario2.node[0].nic.mac1609_4 	TotalLostPackets 	222
scalar RSUExampleScenario2.node[0].nic.mac1609_4 	delayMedio 	0.004753044489
scalar RSUExampleScenario2.node[0].nic.mac1609_4 	throughputMedioBPS 	861763.44646784
scalar RSUExampleScenario2.node[14].nic.mac1609_4 	TotalLostPackets 	462
scalar RSUExampleScenario2.node[14].nic.mac1609_4 	delayMedio 	0.00657205345
scalar RSUExampleScenario2.node[14].nic.mac1609_4 	throughputMedioBPS 	623245.08328915
scalar RSUExampleScenario2.node[7].nic.mac1609_4 	TotalLostPackets 	77
scalar RSUExampleScenario2.node[7].nic.mac1609_4 	delayMedio 	0.006378713464
scalar RSUExampleScenario2.node[7].nic.mac1609_4 	throughputMedioBPS 	642135.75717948
scalar RSUExampleScenario2.node[2].nic.mac1609_4 	TotalLostPackets 	577
scalar RSUExampleScenario2.node[2].nic.mac1609_4 	delayMedio 	0.007069570528
scalar RSUExampleScenario2.node[2].nic.mac1609_4 	throughputMedioBPS 	579384.55858678
scalar RSUExampleScenario2.node[8].nic.mac1609_4 	TotalLostPackets 	407
scalar RSUExampleScenario2.node[8].nic.mac1609_4 	delayMedio 	0.006951319864
scalar RSUExampleScenario2.node[8].nic.mac1609_4 	throughputMedioBPS 	589240.6162276
scalar RSUExampleScenario2.node[3].nic.mac1609_4 	TotalLostPackets 	1105
scalar RSUExampleScenario2.node[3].nic.mac1609_4 	delayMedio 	0.006087505517
scalar RSUExampleScenario2.node[3].nic.mac1609_4 	throughputMedioBPS 	672853.59967584
scalar RSUExampleScenario2.node[11].nic.mac1609_4 	TotalLostPackets 	647
scalar RSUExampleScenario2.node[11].nic.mac1609_4 	delayMedio 	0.006728555262
scalar RSUExampleScenario2.node[11].nic.mac1609_4 	throughputMedioBPS 	608748.80867559
scalar RSUExampleScenario2.node[17].nic.mac1609_4 	TotalLostPackets 	1146
scalar RSUExampleScenario2.node[17].nic.mac1609_4 	delayMedio 	0.004812289867
scalar RSUExampleScenario2.node[17].nic.mac1609_4 	throughputMedioBPS 	851154.04787509
scalar RSUExampleScenario2.node[27].nic.mac1609_4 	TotalLostPackets 	349
scalar RSUExampleScenario2.node[27].nic.mac1609_4 	delayMedio 	0.00845525148
scalar RSUExampleScenario2.node[27].nic.mac1609_4 	throughputMedioBPS 	484432.66411591
scalar RSUExampleScenario2.node[12].nic.mac1609_4 	TotalLostPackets 	667
scalar RSUExampleScenario2.node[12].nic.mac1609_4 	delayMedio 	0.006729280204
scalar RSUExampleScenario2.node[12].nic.mac1609_4 	throughputMedioBPS 	608683.22852326
scalar RSUExampleScenario2.node[18].nic.mac1609_4 	TotalLostPackets 	940
scalar RSUExampleScenario2.node[18].nic.mac1609_4 	delayMedio 	0.003155734774
scalar RSUExampleScenario2.node[18].nic.mac1609_4 	throughputMedioBPS 	1297954.4523611
scalar RSUExampleScenario2.node[22].nic.mac1609_4 	TotalLostPackets 	501
scalar RSUExampleScenario2.node[22].nic.mac1609_4 	delayMedio 	0.005654291905
scalar RSUExampleScenario2.node[22].nic.mac1609_4 	throughputMedioBPS 	724405.47267173
scalar RSUExampleScenario2.node[28].nic.mac1609_4 	TotalLostPackets 	515
scalar RSUExampleScenario2.node[28].nic.mac1609_4 	delayMedio 	0.008164324405
scalar RSUExampleScenario2.node[28].nic.mac1609_4 	throughputMedioBPS 	501694.91028013
scalar RSUExampleScenario2.node[33].nic.mac1609_4 	TotalLostPackets 	55
scalar RSUExampleScenario2.node[33].nic.mac1609_4 	delayMedio 	0.00081942218
scalar RSUExampleScenario2.node[33].nic.mac1609_4 	throughputMedioBPS 	4998644.288569
scalar RSUExampleScenario2.node[1].nic.mac1609_4 	TotalLostPackets 	1030
scalar RSUExampleScenario2.node[1].nic.mac1609_4 	delayMedio 	0.005951179986
scalar RSUExampleScenario2.node[1].nic.mac1609_4 	throughputMedioBPS 	688266.86635046
scalar RSUExampleScenario2.node[29].nic.mac1609_4 	TotalLostPackets 	196
scalar RSUExampleScenario2.node[29].nic.mac1609_4 	delayMedio 	0.009665663993
scalar RSUExampleScenario2.node[29].nic.mac1609_4 	throughputMedioBPS 	423768.09321808
scalar RSUExampleScenario2.node[34].nic.mac1609_4 	TotalLostPackets 	635
scalar RSUExampleScenario2.node[34].nic.mac1609_4 	delayMedio 	0.000733736316
scalar RSUExampleScenario2.node[34].nic.mac1609_4 	throughputMedioBPS 	5582386.8993294
scalar RSUExampleScenario2.node[9].nic.mac1609_4 	TotalLostPackets 	1324
scalar RSUExampleScenario2.node[9].nic.mac1609_4 	delayMedio 	0.005596571457
scalar RSUExampleScenario2.node[9].nic.mac1609_4 	throughputMedioBPS 	731876.65541651
scalar RSUExampleScenario2.node[15].nic.mac1609_4 	TotalLostPackets 	275
scalar RSUExampleScenario2.node[15].nic.mac1609_4 	delayMedio 	0.007333019302
scalar RSUExampleScenario2.node[15].nic.mac1609_4 	throughputMedioBPS 	558569.37386579
scalar RSUExampleScenario2.node[20].nic.mac1609_4 	TotalLostPackets 	308
scalar RSUExampleScenario2.node[20].nic.mac1609_4 	delayMedio 	0.003268306499
scalar RSUExampleScenario2.node[20].nic.mac1609_4 	throughputMedioBPS 	1253248.4332919
scalar RSUExampleScenario2.node[23].nic.mac1609_4 	TotalLostPackets 	1198
scalar RSUExampleScenario2.node[23].nic.mac1609_4 	delayMedio 	0.006174769617
scalar RSUExampleScenario2.node[23].nic.mac1609_4 	throughputMedioBPS 	663344.5867699
scalar RSUExampleScenario2.node[25].nic.mac1609_4 	TotalLostPackets 	657
scalar RSUExampleScenario2.node[25].nic.mac1609_4 	delayMedio 	0.003830079501
scalar RSUExampleScenario2.node[25].nic.mac1609_4 	throughputMedioBPS 	1069429.4983819
scalar RSUExampleScenario2.node[4].nic.mac1609_4 	TotalLostPackets 	1103
scalar RSUExampleScenario2.node[4].nic.mac1609_4 	delayMedio 	0.006220382136
scalar RSUExampleScenario2.node[4].nic.mac1609_4 	throughputMedioBPS 	658480.44549461
scalar RSUExampleScenario2.node[19].nic.mac1609_4 	TotalLostPackets 	282
scalar RSUExampleScenario2.node[19].nic.mac1609_4 	delayMedio 	0.005537291307
scalar RSUExampleScenario2.node[19].nic.mac1609_4 	throughputMedioBPS 	739711.85062394
scalar RSUExampleScenario2.node[21].nic.mac1609_4 	TotalLostPackets 	1373
scalar RSUExampleScenario2.node[21].nic.mac1609_4 	delayMedio 	0.005009040106
scalar RSUExampleScenario2.node[21].nic.mac1609_4 	throughputMedioBPS 	817721.54212625
scalar RSUExampleScenario2.node[24].nic.mac1609_4 	TotalLostPackets 	316
scalar RSUExampleScenario2.node[24].nic.mac1609_4 	delayMedio 	0.003427352145
scalar RSUExampleScenario2.node[24].nic.mac1609_4 	throughputMedioBPS 	1195091.670363
scalar RSUExampleScenario2.node[26].nic.mac1609_4 	TotalLostPackets 	756
scalar RSUExampleScenario2.node[26].nic.mac1609_4 	delayMedio 	0.007544195751
scalar RSUExampleScenario2.node[26].nic.mac1609_4 	throughputMedioBPS 	542933.95015849
scalar RSUExampleScenario2.node[30].nic.mac1609_4 	TotalLostPackets 	378
scalar RSUExampleScenario2.node[30].nic.mac1609_4 	delayMedio 	0.005075870614
scalar RSUExampleScenario2.node[30].nic.mac1609_4 	throughputMedioBPS 	806955.16333032
scalar RSUExampleScenario2.node[31].nic.mac1609_4 	TotalLostPackets 	173
scalar RSUExampleScenario2.node[31].nic.mac1609_4 	delayMedio 	0.012428431971
scalar RSUExampleScenario2.node[31].nic.mac1609_4 	throughputMedioBPS 	329566.91637103
scalar RSUExampleScenario2.node[32].nic.mac1609_4 	TotalLostPackets 	270
scalar RSUExampleScenario2.node[32].nic.mac1609_4 	delayMedio 	0.000727941147
scalar RSUExampleScenario2.node[32].nic.mac1609_4 	throughputMedioBPS 	5626828.508933
scalar RSUExampleScenario2.node[35].nic.mac1609_4 	TotalLostPackets 	180
scalar RSUExampleScenario2.node[35].nic.mac1609_4 	delayMedio 	0.000744220945
scalar RSUExampleScenario2.node[35].nic.mac1609_4 	throughputMedioBPS 	5503741.9061849
scalar RSUExampleScenario2.node[10].nic.mac1609_4 	TotalLostPackets 	1306
scalar RSUExampleScenario2.node[10].nic.mac1609_4 	delayMedio 	0.006314921683
scalar RSUExampleScenario2.node[10].nic.mac1609_4 	throughputMedioBPS 	648622.45423064
scalar RSUExampleScenario2.node[13].nic.mac1609_4 	TotalLostPackets 	665
scalar RSUExampleScenario2.node[13].nic.mac1609_4 	delayMedio 	0.006759359764
scalar RSUExampleScenario2.node[13].nic.mac1609_4 	throughputMedioBPS 	605974.55133473
scalar RSUExampleScenario2.node[16].nic.mac1609_4 	TotalLostPackets 	1329
scalar RSUExampleScenario2.node[16].nic.mac1609_4 	delayMedio 	0.005633141129
scalar RSUExampleScenario2.node[16].nic.mac1609_4 	throughputMedioBPS 	727125.40057212
