version 2
run v1-1301-20171204-17:33:43-8763
attr configname v1
attr cwmax 4096
attr cwmin 32
attr datetime 20171204-17:33:43
attr experiment v1
attr inifile omnetpp.ini
attr iterationvars "$cwmin=32, $cwmax=4096, $slotlength=5, $txPower=2.51"
attr iterationvars2 "$cwmin=32, $cwmax=4096, $slotlength=5, $txPower=2.51, $repetition=0"
attr measurement "$cwmin=32, $cwmax=4096, $slotlength=5, $txPower=2.51"
attr network RSUExampleScenario2
attr processid 8763
attr repetition 0
attr replication #0
attr resultdir results
attr runnumber 1301
attr seedset 1301
attr slotlength 5
attr txPower 2.51
param **.coreDebug true
param **.debug true
param *.**.nic.mac1609_4.bitrate 6Mbps
param *.**.nic.mac1609_4.cwmax_ "${cwmax=1024, 2048, 4096}"
param *.**.nic.mac1609_4.cwmin_ "${cwmin=16, 32, 64}"
param *.**.nic.mac1609_4.slotlength_ "${slotlength=5..100 step 5}ms"
param *.**.nic.mac1609_4.txPower "${txPower=1.26, 2.51, 3.98, 10, 15.85, 25.12, 50.12, 100, 251.19, 501.19, 794.33, 1258.93, 1584.89}mW"
param *.**.nic.mac1609_4.useServiceChannel false
param *.**.nic.phy80211p.analogueModels "xmldoc(\"config.xml\")"
param *.**.nic.phy80211p.decider "xmldoc(\"config.xml\")"
param *.**.nic.phy80211p.sensitivity -89dBm
param *.**.nic.phy80211p.thermalNoise -110dBm
param *.**.nic.phy80211p.usePropagationDelay true
param *.**.nic.phy80211p.useThermalNoise true
param *.annotations.draw false
param *.connectionManager.alpha 2.0
param *.connectionManager.carrierFrequency "5.890e9 Hz"
param *.connectionManager.drawMaxIntfDist false
param *.connectionManager.maxInterfDist 2600m
param *.connectionManager.pMax 20mW
param *.connectionManager.sat -89dBm
param *.connectionManager.sendDirect true
param *.manager.autoShutdown true
param *.manager.host "\"localhost\""
param *.manager.launchConfig "xmldoc(\"osm.launchd.xml\")"
param *.manager.margin 25
param *.manager.moduleDisplayString "\"\""
param *.manager.moduleName "\"node\""
param *.manager.moduleType "\"org.car2x.veins.nodes.Car\""
param *.manager.port 9999
param *.manager.updateInterval 1s
param *.node[*].appl.beaconInterval "0.1 s"
param *.node[*].appl.beaconLengthBits "3960 bit"
param *.node[*].appl.beaconPriority 3
param *.node[*].appl.dataLengthBits "3960 bit"
param *.node[*].appl.dataOnSch false
param *.node[*].appl.dataPriority 2
param *.node[*].appl.debug false
param *.node[*].appl.headerLength "80 bit"
param *.node[*].appl.maxOffset "0.005 s"
param *.node[*].appl.sendBeacons true
param *.node[*].appl.sendData false
param *.node[*].applType "\"TraCIDemo11p\""
param *.node[*].mobilityType "\"TraCIMobility\""
param *.node[*].mobilityType.debug true
param *.node[*].veinsmobility.x 0
param *.node[*].veinsmobility.y 0
param *.node[*].veinsmobility.z 1.895
param *.node[*].veinsmobilityType "\"org.car2x.veins.modules.mobility.traci.TraCIMobility\""
param *.node[*].veinsmobilityType.debug true
param *.obstacles.debug false
param *.playgroundSizeX 2000m
param *.playgroundSizeY 2000m
param *.playgroundSizeZ 50m
param *.world.use2D false
param *.world.useTorus false

scalar . 	cwmax 	4096
scalar . 	cwmin 	32
scalar . 	slotlength 	5
scalar . 	txPower 	2.51
scalar RSUExampleScenario2.node[5].nic.mac1609_4 	TotalLostPackets 	0
scalar RSUExampleScenario2.node[5].nic.mac1609_4 	delayMedio 	0.005040658169
scalar RSUExampleScenario2.node[5].nic.mac1609_4 	throughputMedioBPS 	812592.29698102
scalar RSUExampleScenario2.node[0].nic.mac1609_4 	TotalLostPackets 	0
scalar RSUExampleScenario2.node[0].nic.mac1609_4 	delayMedio 	0.009563660746
scalar RSUExampleScenario2.node[0].nic.mac1609_4 	throughputMedioBPS 	428287.88145962
scalar RSUExampleScenario2.node[14].nic.mac1609_4 	TotalLostPackets 	0
scalar RSUExampleScenario2.node[14].nic.mac1609_4 	delayMedio 	0.005137532523
scalar RSUExampleScenario2.node[14].nic.mac1609_4 	throughputMedioBPS 	797269.89211394
scalar RSUExampleScenario2.node[2].nic.mac1609_4 	TotalLostPackets 	70
scalar RSUExampleScenario2.node[2].nic.mac1609_4 	delayMedio 	0.00214947863
scalar RSUExampleScenario2.node[2].nic.mac1609_4 	throughputMedioBPS 	1905578.3772288
scalar RSUExampleScenario2.node[7].nic.mac1609_4 	TotalLostPackets 	10
scalar RSUExampleScenario2.node[7].nic.mac1609_4 	delayMedio 	0.000721387255
scalar RSUExampleScenario2.node[7].nic.mac1609_4 	throughputMedioBPS 	5677948.94014
scalar RSUExampleScenario2.node[8].nic.mac1609_4 	TotalLostPackets 	0
scalar RSUExampleScenario2.node[8].nic.mac1609_4 	delayMedio 	0.000721372193
scalar RSUExampleScenario2.node[8].nic.mac1609_4 	throughputMedioBPS 	5678067.4908122
scalar RSUExampleScenario2.node[3].nic.mac1609_4 	TotalLostPackets 	7
scalar RSUExampleScenario2.node[3].nic.mac1609_4 	delayMedio 	0.002464118242
scalar RSUExampleScenario2.node[3].nic.mac1609_4 	throughputMedioBPS 	1662257.8944506
scalar RSUExampleScenario2.node[11].nic.mac1609_4 	TotalLostPackets 	0
scalar RSUExampleScenario2.node[11].nic.mac1609_4 	delayMedio 	0.002466962342
scalar RSUExampleScenario2.node[11].nic.mac1609_4 	throughputMedioBPS 	1660341.5183032
scalar RSUExampleScenario2.node[17].nic.mac1609_4 	TotalLostPackets 	0
scalar RSUExampleScenario2.node[17].nic.mac1609_4 	delayMedio 	0.00963971648
scalar RSUExampleScenario2.node[17].nic.mac1609_4 	throughputMedioBPS 	424908.76245196
scalar RSUExampleScenario2.node[27].nic.mac1609_4 	TotalLostPackets 	0
scalar RSUExampleScenario2.node[27].nic.mac1609_4 	delayMedio 	0.00072144524
scalar RSUExampleScenario2.node[27].nic.mac1609_4 	throughputMedioBPS 	5677492.581706
scalar RSUExampleScenario2.node[12].nic.mac1609_4 	TotalLostPackets 	0
scalar RSUExampleScenario2.node[12].nic.mac1609_4 	delayMedio 	0.001639446604
scalar RSUExampleScenario2.node[12].nic.mac1609_4 	throughputMedioBPS 	2498404.0287323
scalar RSUExampleScenario2.node[18].nic.mac1609_4 	TotalLostPackets 	0
scalar RSUExampleScenario2.node[18].nic.mac1609_4 	delayMedio 	0.000721359803
scalar RSUExampleScenario2.node[18].nic.mac1609_4 	throughputMedioBPS 	5678165.0195774
scalar RSUExampleScenario2.node[22].nic.mac1609_4 	TotalLostPackets 	0
scalar RSUExampleScenario2.node[22].nic.mac1609_4 	delayMedio 	0.000721299048
scalar RSUExampleScenario2.node[22].nic.mac1609_4 	throughputMedioBPS 	5678643.2899545
scalar RSUExampleScenario2.node[28].nic.mac1609_4 	TotalLostPackets 	0
scalar RSUExampleScenario2.node[28].nic.mac1609_4 	delayMedio 	0.000721281933
scalar RSUExampleScenario2.node[28].nic.mac1609_4 	throughputMedioBPS 	5678778.0386379
scalar RSUExampleScenario2.node[1].nic.mac1609_4 	TotalLostPackets 	2
scalar RSUExampleScenario2.node[1].nic.mac1609_4 	delayMedio 	0.003284132443
scalar RSUExampleScenario2.node[1].nic.mac1609_4 	throughputMedioBPS 	1247209.1399287
scalar RSUExampleScenario2.node[29].nic.mac1609_4 	TotalLostPackets 	0
scalar RSUExampleScenario2.node[29].nic.mac1609_4 	delayMedio 	0.000721160123
scalar RSUExampleScenario2.node[29].nic.mac1609_4 	throughputMedioBPS 	5679737.2331368
scalar RSUExampleScenario2.node[34].nic.mac1609_4 	TotalLostPackets 	0
scalar RSUExampleScenario2.node[34].nic.mac1609_4 	delayMedio 	0.040042839043
scalar RSUExampleScenario2.node[34].nic.mac1609_4 	throughputMedioBPS 	102290.44937553
scalar RSUExampleScenario2.node[9].nic.mac1609_4 	TotalLostPackets 	0
scalar RSUExampleScenario2.node[9].nic.mac1609_4 	delayMedio 	0.002865154179
scalar RSUExampleScenario2.node[9].nic.mac1609_4 	throughputMedioBPS 	1429591.4789525
scalar RSUExampleScenario2.node[15].nic.mac1609_4 	TotalLostPackets 	0
scalar RSUExampleScenario2.node[15].nic.mac1609_4 	delayMedio 	0.000721226665
scalar RSUExampleScenario2.node[15].nic.mac1609_4 	throughputMedioBPS 	5679213.2066824
scalar RSUExampleScenario2.node[20].nic.mac1609_4 	TotalLostPackets 	0
scalar RSUExampleScenario2.node[20].nic.mac1609_4 	delayMedio 	0.006818466651
scalar RSUExampleScenario2.node[20].nic.mac1609_4 	throughputMedioBPS 	600721.57126795
scalar RSUExampleScenario2.node[23].nic.mac1609_4 	TotalLostPackets 	35
scalar RSUExampleScenario2.node[23].nic.mac1609_4 	delayMedio 	0.000721350631
scalar RSUExampleScenario2.node[23].nic.mac1609_4 	throughputMedioBPS 	5678237.2179623
scalar RSUExampleScenario2.node[25].nic.mac1609_4 	TotalLostPackets 	0
scalar RSUExampleScenario2.node[25].nic.mac1609_4 	delayMedio 	0.000721281051
scalar RSUExampleScenario2.node[25].nic.mac1609_4 	throughputMedioBPS 	5678784.9853089
scalar RSUExampleScenario2.node[4].nic.mac1609_4 	TotalLostPackets 	11
scalar RSUExampleScenario2.node[4].nic.mac1609_4 	delayMedio 	0.003344209074
scalar RSUExampleScenario2.node[4].nic.mac1609_4 	throughputMedioBPS 	1224803.8055246
scalar RSUExampleScenario2.node[19].nic.mac1609_4 	TotalLostPackets 	0
scalar RSUExampleScenario2.node[19].nic.mac1609_4 	delayMedio 	0.0007212071
scalar RSUExampleScenario2.node[19].nic.mac1609_4 	throughputMedioBPS 	5679367.2710408
scalar RSUExampleScenario2.node[21].nic.mac1609_4 	TotalLostPackets 	0
scalar RSUExampleScenario2.node[21].nic.mac1609_4 	delayMedio 	0.008566619207
scalar RSUExampleScenario2.node[21].nic.mac1609_4 	throughputMedioBPS 	478134.94458238
scalar RSUExampleScenario2.node[24].nic.mac1609_4 	TotalLostPackets 	0
scalar RSUExampleScenario2.node[24].nic.mac1609_4 	delayMedio 	0.000721125622
scalar RSUExampleScenario2.node[24].nic.mac1609_4 	throughputMedioBPS 	5680008.964101
scalar RSUExampleScenario2.node[26].nic.mac1609_4 	TotalLostPackets 	109
scalar RSUExampleScenario2.node[26].nic.mac1609_4 	delayMedio 	0.000721354133
scalar RSUExampleScenario2.node[26].nic.mac1609_4 	throughputMedioBPS 	5678209.6503502
scalar RSUExampleScenario2.node[30].nic.mac1609_4 	TotalLostPackets 	0
scalar RSUExampleScenario2.node[30].nic.mac1609_4 	delayMedio 	0.000721254279
scalar RSUExampleScenario2.node[30].nic.mac1609_4 	throughputMedioBPS 	5678995.7725339
scalar RSUExampleScenario2.node[31].nic.mac1609_4 	TotalLostPackets 	0
scalar RSUExampleScenario2.node[31].nic.mac1609_4 	delayMedio 	0.000721166537
scalar RSUExampleScenario2.node[31].nic.mac1609_4 	throughputMedioBPS 	5679686.7180883
scalar RSUExampleScenario2.node[35].nic.mac1609_4 	TotalLostPackets 	0
scalar RSUExampleScenario2.node[35].nic.mac1609_4 	delayMedio 	0.000721364762
scalar RSUExampleScenario2.node[35].nic.mac1609_4 	throughputMedioBPS 	5678125.9879349
scalar RSUExampleScenario2.node[10].nic.mac1609_4 	TotalLostPackets 	0
scalar RSUExampleScenario2.node[10].nic.mac1609_4 	delayMedio 	0.000721277134
scalar RSUExampleScenario2.node[10].nic.mac1609_4 	throughputMedioBPS 	5678815.8246414
scalar RSUExampleScenario2.node[13].nic.mac1609_4 	TotalLostPackets 	0
scalar RSUExampleScenario2.node[13].nic.mac1609_4 	delayMedio 	0.001617944375
scalar RSUExampleScenario2.node[13].nic.mac1609_4 	throughputMedioBPS 	2531607.4291364
scalar RSUExampleScenario2.node[16].nic.mac1609_4 	TotalLostPackets 	150
scalar RSUExampleScenario2.node[16].nic.mac1609_4 	delayMedio 	0.010174206151
scalar RSUExampleScenario2.node[16].nic.mac1609_4 	throughputMedioBPS 	402586.69221
