version 2
run v1-1414-20171205-02:09:57-8763
attr configname v1
attr cwmax 4096
attr cwmin 32
attr datetime 20171205-02:09:57
attr experiment v1
attr inifile omnetpp.ini
attr iterationvars "$cwmin=32, $cwmax=4096, $slotlength=45, $txPower=794.33"
attr iterationvars2 "$cwmin=32, $cwmax=4096, $slotlength=45, $txPower=794.33, $repetition=0"
attr measurement "$cwmin=32, $cwmax=4096, $slotlength=45, $txPower=794.33"
attr network RSUExampleScenario2
attr processid 8763
attr repetition 0
attr replication #0
attr resultdir results
attr runnumber 1414
attr seedset 1414
attr slotlength 45
attr txPower 794.33
param **.coreDebug true
param **.debug true
param *.**.nic.mac1609_4.bitrate 6Mbps
param *.**.nic.mac1609_4.cwmax_ "${cwmax=1024, 2048, 4096}"
param *.**.nic.mac1609_4.cwmin_ "${cwmin=16, 32, 64}"
param *.**.nic.mac1609_4.slotlength_ "${slotlength=5..100 step 5}ms"
param *.**.nic.mac1609_4.txPower "${txPower=1.26, 2.51, 3.98, 10, 15.85, 25.12, 50.12, 100, 251.19, 501.19, 794.33, 1258.93, 1584.89}mW"
param *.**.nic.mac1609_4.useServiceChannel false
param *.**.nic.phy80211p.analogueModels "xmldoc(\"config.xml\")"
param *.**.nic.phy80211p.decider "xmldoc(\"config.xml\")"
param *.**.nic.phy80211p.sensitivity -89dBm
param *.**.nic.phy80211p.thermalNoise -110dBm
param *.**.nic.phy80211p.usePropagationDelay true
param *.**.nic.phy80211p.useThermalNoise true
param *.annotations.draw false
param *.connectionManager.alpha 2.0
param *.connectionManager.carrierFrequency "5.890e9 Hz"
param *.connectionManager.drawMaxIntfDist false
param *.connectionManager.maxInterfDist 2600m
param *.connectionManager.pMax 20mW
param *.connectionManager.sat -89dBm
param *.connectionManager.sendDirect true
param *.manager.autoShutdown true
param *.manager.host "\"localhost\""
param *.manager.launchConfig "xmldoc(\"osm.launchd.xml\")"
param *.manager.margin 25
param *.manager.moduleDisplayString "\"\""
param *.manager.moduleName "\"node\""
param *.manager.moduleType "\"org.car2x.veins.nodes.Car\""
param *.manager.port 9999
param *.manager.updateInterval 1s
param *.node[*].appl.beaconInterval "0.1 s"
param *.node[*].appl.beaconLengthBits "3960 bit"
param *.node[*].appl.beaconPriority 3
param *.node[*].appl.dataLengthBits "3960 bit"
param *.node[*].appl.dataOnSch false
param *.node[*].appl.dataPriority 2
param *.node[*].appl.debug false
param *.node[*].appl.headerLength "80 bit"
param *.node[*].appl.maxOffset "0.005 s"
param *.node[*].appl.sendBeacons true
param *.node[*].appl.sendData false
param *.node[*].applType "\"TraCIDemo11p\""
param *.node[*].mobilityType "\"TraCIMobility\""
param *.node[*].mobilityType.debug true
param *.node[*].veinsmobility.x 0
param *.node[*].veinsmobility.y 0
param *.node[*].veinsmobility.z 1.895
param *.node[*].veinsmobilityType "\"org.car2x.veins.modules.mobility.traci.TraCIMobility\""
param *.node[*].veinsmobilityType.debug true
param *.obstacles.debug false
param *.playgroundSizeX 2000m
param *.playgroundSizeY 2000m
param *.playgroundSizeZ 50m
param *.world.use2D false
param *.world.useTorus false

scalar . 	cwmax 	4096
scalar . 	cwmin 	32
scalar . 	slotlength 	45
scalar . 	txPower 	794.33
scalar RSUExampleScenario2.node[6].nic.mac1609_4 	TotalLostPackets 	0
scalar RSUExampleScenario2.node[6].nic.mac1609_4 	delayMedio 	0.000727499632
scalar RSUExampleScenario2.node[6].nic.mac1609_4 	throughputMedioBPS 	5630243.3994997
scalar RSUExampleScenario2.node[5].nic.mac1609_4 	TotalLostPackets 	1
scalar RSUExampleScenario2.node[5].nic.mac1609_4 	delayMedio 	0.005348059487
scalar RSUExampleScenario2.node[5].nic.mac1609_4 	throughputMedioBPS 	765885.27302121
scalar RSUExampleScenario2.node[0].nic.mac1609_4 	TotalLostPackets 	2
scalar RSUExampleScenario2.node[0].nic.mac1609_4 	delayMedio 	0.00521961561
scalar RSUExampleScenario2.node[0].nic.mac1609_4 	throughputMedioBPS 	784732.11558211
scalar RSUExampleScenario2.node[14].nic.mac1609_4 	TotalLostPackets 	2
scalar RSUExampleScenario2.node[14].nic.mac1609_4 	delayMedio 	0.006442036254
scalar RSUExampleScenario2.node[14].nic.mac1609_4 	throughputMedioBPS 	635823.80454321
scalar RSUExampleScenario2.node[7].nic.mac1609_4 	TotalLostPackets 	1
scalar RSUExampleScenario2.node[7].nic.mac1609_4 	delayMedio 	0.005464675337
scalar RSUExampleScenario2.node[7].nic.mac1609_4 	throughputMedioBPS 	749541.32626094
scalar RSUExampleScenario2.node[2].nic.mac1609_4 	TotalLostPackets 	2
scalar RSUExampleScenario2.node[2].nic.mac1609_4 	delayMedio 	0.005211515234
scalar RSUExampleScenario2.node[2].nic.mac1609_4 	throughputMedioBPS 	785951.842483
scalar RSUExampleScenario2.node[8].nic.mac1609_4 	TotalLostPackets 	2
scalar RSUExampleScenario2.node[8].nic.mac1609_4 	delayMedio 	0.005372556173
scalar RSUExampleScenario2.node[8].nic.mac1609_4 	throughputMedioBPS 	762393.14551139
scalar RSUExampleScenario2.node[3].nic.mac1609_4 	TotalLostPackets 	1
scalar RSUExampleScenario2.node[3].nic.mac1609_4 	delayMedio 	0.004647598455
scalar RSUExampleScenario2.node[3].nic.mac1609_4 	throughputMedioBPS 	881315.3804053
scalar RSUExampleScenario2.node[11].nic.mac1609_4 	TotalLostPackets 	1
scalar RSUExampleScenario2.node[11].nic.mac1609_4 	delayMedio 	0.005094181231
scalar RSUExampleScenario2.node[11].nic.mac1609_4 	throughputMedioBPS 	804054.62902659
scalar RSUExampleScenario2.node[17].nic.mac1609_4 	TotalLostPackets 	0
scalar RSUExampleScenario2.node[17].nic.mac1609_4 	delayMedio 	0.002959978079
scalar RSUExampleScenario2.node[17].nic.mac1609_4 	throughputMedioBPS 	1383794.0318357
scalar RSUExampleScenario2.node[27].nic.mac1609_4 	TotalLostPackets 	0
scalar RSUExampleScenario2.node[27].nic.mac1609_4 	delayMedio 	0.005114304358
scalar RSUExampleScenario2.node[27].nic.mac1609_4 	throughputMedioBPS 	800890.93523381
scalar RSUExampleScenario2.node[12].nic.mac1609_4 	TotalLostPackets 	2
scalar RSUExampleScenario2.node[12].nic.mac1609_4 	delayMedio 	0.005094826669
scalar RSUExampleScenario2.node[12].nic.mac1609_4 	throughputMedioBPS 	803952.7674666
scalar RSUExampleScenario2.node[18].nic.mac1609_4 	TotalLostPackets 	0
scalar RSUExampleScenario2.node[18].nic.mac1609_4 	delayMedio 	0.002963594961
scalar RSUExampleScenario2.node[18].nic.mac1609_4 	throughputMedioBPS 	1382105.1978996
scalar RSUExampleScenario2.node[22].nic.mac1609_4 	TotalLostPackets 	0
scalar RSUExampleScenario2.node[22].nic.mac1609_4 	delayMedio 	0.003622010681
scalar RSUExampleScenario2.node[22].nic.mac1609_4 	throughputMedioBPS 	1130863.589485
scalar RSUExampleScenario2.node[28].nic.mac1609_4 	TotalLostPackets 	0
scalar RSUExampleScenario2.node[28].nic.mac1609_4 	delayMedio 	0.005113041357
scalar RSUExampleScenario2.node[28].nic.mac1609_4 	throughputMedioBPS 	801088.76769848
scalar RSUExampleScenario2.node[33].nic.mac1609_4 	TotalLostPackets 	0
scalar RSUExampleScenario2.node[33].nic.mac1609_4 	delayMedio 	0.0008150273
scalar RSUExampleScenario2.node[33].nic.mac1609_4 	throughputMedioBPS 	5025598.5262857
scalar RSUExampleScenario2.node[1].nic.mac1609_4 	TotalLostPackets 	1
scalar RSUExampleScenario2.node[1].nic.mac1609_4 	delayMedio 	0.004617733041
scalar RSUExampleScenario2.node[1].nic.mac1609_4 	throughputMedioBPS 	887015.33057893
scalar RSUExampleScenario2.node[29].nic.mac1609_4 	TotalLostPackets 	0
scalar RSUExampleScenario2.node[29].nic.mac1609_4 	delayMedio 	0.005080446785
scalar RSUExampleScenario2.node[29].nic.mac1609_4 	throughputMedioBPS 	806228.3049502
scalar RSUExampleScenario2.node[34].nic.mac1609_4 	TotalLostPackets 	0
scalar RSUExampleScenario2.node[34].nic.mac1609_4 	delayMedio 	0.000814159589
scalar RSUExampleScenario2.node[34].nic.mac1609_4 	throughputMedioBPS 	5030954.6877847
scalar RSUExampleScenario2.node[9].nic.mac1609_4 	TotalLostPackets 	1
scalar RSUExampleScenario2.node[9].nic.mac1609_4 	delayMedio 	0.005039217455
scalar RSUExampleScenario2.node[9].nic.mac1609_4 	throughputMedioBPS 	812824.61747266
scalar RSUExampleScenario2.node[15].nic.mac1609_4 	TotalLostPackets 	2
scalar RSUExampleScenario2.node[15].nic.mac1609_4 	delayMedio 	0.005246340009
scalar RSUExampleScenario2.node[15].nic.mac1609_4 	throughputMedioBPS 	780734.75844719
scalar RSUExampleScenario2.node[20].nic.mac1609_4 	TotalLostPackets 	0
scalar RSUExampleScenario2.node[20].nic.mac1609_4 	delayMedio 	0.003415420023
scalar RSUExampleScenario2.node[20].nic.mac1609_4 	throughputMedioBPS 	1199266.8462175
scalar RSUExampleScenario2.node[23].nic.mac1609_4 	TotalLostPackets 	0
scalar RSUExampleScenario2.node[23].nic.mac1609_4 	delayMedio 	0.003612291311
scalar RSUExampleScenario2.node[23].nic.mac1609_4 	throughputMedioBPS 	1133906.3345477
scalar RSUExampleScenario2.node[25].nic.mac1609_4 	TotalLostPackets 	0
scalar RSUExampleScenario2.node[25].nic.mac1609_4 	delayMedio 	0.004144248793
scalar RSUExampleScenario2.node[25].nic.mac1609_4 	throughputMedioBPS 	988357.65037604
scalar RSUExampleScenario2.node[4].nic.mac1609_4 	TotalLostPackets 	1
scalar RSUExampleScenario2.node[4].nic.mac1609_4 	delayMedio 	0.004690526018
scalar RSUExampleScenario2.node[4].nic.mac1609_4 	throughputMedioBPS 	873249.60652299
scalar RSUExampleScenario2.node[19].nic.mac1609_4 	TotalLostPackets 	0
scalar RSUExampleScenario2.node[19].nic.mac1609_4 	delayMedio 	0.003139980286
scalar RSUExampleScenario2.node[19].nic.mac1609_4 	throughputMedioBPS 	1304466.7886021
scalar RSUExampleScenario2.node[21].nic.mac1609_4 	TotalLostPackets 	0
scalar RSUExampleScenario2.node[21].nic.mac1609_4 	delayMedio 	0.003352833008
scalar RSUExampleScenario2.node[21].nic.mac1609_4 	throughputMedioBPS 	1221653.4465088
scalar RSUExampleScenario2.node[24].nic.mac1609_4 	TotalLostPackets 	0
scalar RSUExampleScenario2.node[24].nic.mac1609_4 	delayMedio 	0.003976031058
scalar RSUExampleScenario2.node[24].nic.mac1609_4 	throughputMedioBPS 	1030173.0394029
scalar RSUExampleScenario2.node[26].nic.mac1609_4 	TotalLostPackets 	0
scalar RSUExampleScenario2.node[26].nic.mac1609_4 	delayMedio 	0.004445467609
scalar RSUExampleScenario2.node[26].nic.mac1609_4 	throughputMedioBPS 	921387.88548061
scalar RSUExampleScenario2.node[30].nic.mac1609_4 	TotalLostPackets 	0
scalar RSUExampleScenario2.node[30].nic.mac1609_4 	delayMedio 	0.005114442834
scalar RSUExampleScenario2.node[30].nic.mac1609_4 	throughputMedioBPS 	800869.25061061
scalar RSUExampleScenario2.node[31].nic.mac1609_4 	TotalLostPackets 	0
scalar RSUExampleScenario2.node[31].nic.mac1609_4 	delayMedio 	0.006265441277
scalar RSUExampleScenario2.node[31].nic.mac1609_4 	throughputMedioBPS 	653744.85518456
scalar RSUExampleScenario2.node[32].nic.mac1609_4 	TotalLostPackets 	0
scalar RSUExampleScenario2.node[32].nic.mac1609_4 	delayMedio 	0.000818329478
scalar RSUExampleScenario2.node[32].nic.mac1609_4 	throughputMedioBPS 	5005318.8978702
scalar RSUExampleScenario2.node[35].nic.mac1609_4 	TotalLostPackets 	0
scalar RSUExampleScenario2.node[35].nic.mac1609_4 	delayMedio 	0.000812321383
scalar RSUExampleScenario2.node[35].nic.mac1609_4 	throughputMedioBPS 	5042339.2558152
scalar RSUExampleScenario2.node[10].nic.mac1609_4 	TotalLostPackets 	1
scalar RSUExampleScenario2.node[10].nic.mac1609_4 	delayMedio 	0.005117531495
scalar RSUExampleScenario2.node[10].nic.mac1609_4 	throughputMedioBPS 	800385.88989548
scalar RSUExampleScenario2.node[13].nic.mac1609_4 	TotalLostPackets 	1
scalar RSUExampleScenario2.node[13].nic.mac1609_4 	delayMedio 	0.005229059217
scalar RSUExampleScenario2.node[13].nic.mac1609_4 	throughputMedioBPS 	783314.90048352
scalar RSUExampleScenario2.node[16].nic.mac1609_4 	TotalLostPackets 	0
scalar RSUExampleScenario2.node[16].nic.mac1609_4 	delayMedio 	0.00329464576
scalar RSUExampleScenario2.node[16].nic.mac1609_4 	throughputMedioBPS 	1243229.2567714
