version 2
run v1-1050-20171203-22:18:12-8763
attr configname v1
attr cwmax 2048
attr cwmin 32
attr datetime 20171203-22:18:12
attr experiment v1
attr inifile omnetpp.ini
attr iterationvars "$cwmin=32, $cwmax=2048, $slotlength=5, $txPower=794.33"
attr iterationvars2 "$cwmin=32, $cwmax=2048, $slotlength=5, $txPower=794.33, $repetition=0"
attr measurement "$cwmin=32, $cwmax=2048, $slotlength=5, $txPower=794.33"
attr network RSUExampleScenario2
attr processid 8763
attr repetition 0
attr replication #0
attr resultdir results
attr runnumber 1050
attr seedset 1050
attr slotlength 5
attr txPower 794.33
param **.coreDebug true
param **.debug true
param *.**.nic.mac1609_4.bitrate 6Mbps
param *.**.nic.mac1609_4.cwmax_ "${cwmax=1024, 2048, 4096}"
param *.**.nic.mac1609_4.cwmin_ "${cwmin=16, 32, 64}"
param *.**.nic.mac1609_4.slotlength_ "${slotlength=5..100 step 5}ms"
param *.**.nic.mac1609_4.txPower "${txPower=1.26, 2.51, 3.98, 10, 15.85, 25.12, 50.12, 100, 251.19, 501.19, 794.33, 1258.93, 1584.89}mW"
param *.**.nic.mac1609_4.useServiceChannel false
param *.**.nic.phy80211p.analogueModels "xmldoc(\"config.xml\")"
param *.**.nic.phy80211p.decider "xmldoc(\"config.xml\")"
param *.**.nic.phy80211p.sensitivity -89dBm
param *.**.nic.phy80211p.thermalNoise -110dBm
param *.**.nic.phy80211p.usePropagationDelay true
param *.**.nic.phy80211p.useThermalNoise true
param *.annotations.draw false
param *.connectionManager.alpha 2.0
param *.connectionManager.carrierFrequency "5.890e9 Hz"
param *.connectionManager.drawMaxIntfDist false
param *.connectionManager.maxInterfDist 2600m
param *.connectionManager.pMax 20mW
param *.connectionManager.sat -89dBm
param *.connectionManager.sendDirect true
param *.manager.autoShutdown true
param *.manager.host "\"localhost\""
param *.manager.launchConfig "xmldoc(\"osm.launchd.xml\")"
param *.manager.margin 25
param *.manager.moduleDisplayString "\"\""
param *.manager.moduleName "\"node\""
param *.manager.moduleType "\"org.car2x.veins.nodes.Car\""
param *.manager.port 9999
param *.manager.updateInterval 1s
param *.node[*].appl.beaconInterval "0.1 s"
param *.node[*].appl.beaconLengthBits "3960 bit"
param *.node[*].appl.beaconPriority 3
param *.node[*].appl.dataLengthBits "3960 bit"
param *.node[*].appl.dataOnSch false
param *.node[*].appl.dataPriority 2
param *.node[*].appl.debug false
param *.node[*].appl.headerLength "80 bit"
param *.node[*].appl.maxOffset "0.005 s"
param *.node[*].appl.sendBeacons true
param *.node[*].appl.sendData false
param *.node[*].applType "\"TraCIDemo11p\""
param *.node[*].mobilityType "\"TraCIMobility\""
param *.node[*].mobilityType.debug true
param *.node[*].veinsmobility.x 0
param *.node[*].veinsmobility.y 0
param *.node[*].veinsmobility.z 1.895
param *.node[*].veinsmobilityType "\"org.car2x.veins.modules.mobility.traci.TraCIMobility\""
param *.node[*].veinsmobilityType.debug true
param *.obstacles.debug false
param *.playgroundSizeX 2000m
param *.playgroundSizeY 2000m
param *.playgroundSizeZ 50m
param *.world.use2D false
param *.world.useTorus false

scalar . 	cwmax 	2048
scalar . 	cwmin 	32
scalar . 	slotlength 	5
scalar . 	txPower 	794.33
scalar RSUExampleScenario2.node[6].nic.mac1609_4 	TotalLostPackets 	0
scalar RSUExampleScenario2.node[6].nic.mac1609_4 	delayMedio 	0.00074506167
scalar RSUExampleScenario2.node[6].nic.mac1609_4 	throughputMedioBPS 	5497531.4991138
scalar RSUExampleScenario2.node[5].nic.mac1609_4 	TotalLostPackets 	830
scalar RSUExampleScenario2.node[5].nic.mac1609_4 	delayMedio 	0.006345185305
scalar RSUExampleScenario2.node[5].nic.mac1609_4 	throughputMedioBPS 	645528.82278734
scalar RSUExampleScenario2.node[0].nic.mac1609_4 	TotalLostPackets 	1340
scalar RSUExampleScenario2.node[0].nic.mac1609_4 	delayMedio 	0.006519413097
scalar RSUExampleScenario2.node[0].nic.mac1609_4 	throughputMedioBPS 	628277.41381204
scalar RSUExampleScenario2.node[14].nic.mac1609_4 	TotalLostPackets 	1954
scalar RSUExampleScenario2.node[14].nic.mac1609_4 	delayMedio 	0.007793578209
scalar RSUExampleScenario2.node[14].nic.mac1609_4 	throughputMedioBPS 	525560.9028761
scalar RSUExampleScenario2.node[7].nic.mac1609_4 	TotalLostPackets 	1922
scalar RSUExampleScenario2.node[7].nic.mac1609_4 	delayMedio 	0.006336769565
scalar RSUExampleScenario2.node[7].nic.mac1609_4 	throughputMedioBPS 	646386.13700848
scalar RSUExampleScenario2.node[2].nic.mac1609_4 	TotalLostPackets 	2466
scalar RSUExampleScenario2.node[2].nic.mac1609_4 	delayMedio 	0.006218739482
scalar RSUExampleScenario2.node[2].nic.mac1609_4 	throughputMedioBPS 	658654.38038681
scalar RSUExampleScenario2.node[8].nic.mac1609_4 	TotalLostPackets 	2551
scalar RSUExampleScenario2.node[8].nic.mac1609_4 	delayMedio 	0.006503297378
scalar RSUExampleScenario2.node[8].nic.mac1609_4 	throughputMedioBPS 	629834.33818562
scalar RSUExampleScenario2.node[3].nic.mac1609_4 	TotalLostPackets 	2298
scalar RSUExampleScenario2.node[3].nic.mac1609_4 	delayMedio 	0.005366865994
scalar RSUExampleScenario2.node[3].nic.mac1609_4 	throughputMedioBPS 	763201.46698461
scalar RSUExampleScenario2.node[11].nic.mac1609_4 	TotalLostPackets 	2314
scalar RSUExampleScenario2.node[11].nic.mac1609_4 	delayMedio 	0.005971572267
scalar RSUExampleScenario2.node[11].nic.mac1609_4 	throughputMedioBPS 	685916.508576
scalar RSUExampleScenario2.node[17].nic.mac1609_4 	TotalLostPackets 	2001
scalar RSUExampleScenario2.node[17].nic.mac1609_4 	delayMedio 	0.003215195312
scalar RSUExampleScenario2.node[17].nic.mac1609_4 	throughputMedioBPS 	1273950.6008627
scalar RSUExampleScenario2.node[27].nic.mac1609_4 	TotalLostPackets 	1193
scalar RSUExampleScenario2.node[27].nic.mac1609_4 	delayMedio 	0.005726307863
scalar RSUExampleScenario2.node[27].nic.mac1609_4 	throughputMedioBPS 	715295.10773558
scalar RSUExampleScenario2.node[12].nic.mac1609_4 	TotalLostPackets 	2288
scalar RSUExampleScenario2.node[12].nic.mac1609_4 	delayMedio 	0.005971440979
scalar RSUExampleScenario2.node[12].nic.mac1609_4 	throughputMedioBPS 	685931.58916127
scalar RSUExampleScenario2.node[18].nic.mac1609_4 	TotalLostPackets 	2309
scalar RSUExampleScenario2.node[18].nic.mac1609_4 	delayMedio 	0.003275034332
scalar RSUExampleScenario2.node[18].nic.mac1609_4 	throughputMedioBPS 	1250673.9121505
scalar RSUExampleScenario2.node[22].nic.mac1609_4 	TotalLostPackets 	1638
scalar RSUExampleScenario2.node[22].nic.mac1609_4 	delayMedio 	0.003997429077
scalar RSUExampleScenario2.node[22].nic.mac1609_4 	throughputMedioBPS 	1024658.5794956
scalar RSUExampleScenario2.node[28].nic.mac1609_4 	TotalLostPackets 	1075
scalar RSUExampleScenario2.node[28].nic.mac1609_4 	delayMedio 	0.005660397181
scalar RSUExampleScenario2.node[28].nic.mac1609_4 	throughputMedioBPS 	723624.13254981
scalar RSUExampleScenario2.node[33].nic.mac1609_4 	TotalLostPackets 	380
scalar RSUExampleScenario2.node[33].nic.mac1609_4 	delayMedio 	0.000827760596
scalar RSUExampleScenario2.node[33].nic.mac1609_4 	throughputMedioBPS 	4948290.6278982
scalar RSUExampleScenario2.node[1].nic.mac1609_4 	TotalLostPackets 	2291
scalar RSUExampleScenario2.node[1].nic.mac1609_4 	delayMedio 	0.005324969638
scalar RSUExampleScenario2.node[1].nic.mac1609_4 	throughputMedioBPS 	769206.2637719
scalar RSUExampleScenario2.node[29].nic.mac1609_4 	TotalLostPackets 	1121
scalar RSUExampleScenario2.node[29].nic.mac1609_4 	delayMedio 	0.006085355773
scalar RSUExampleScenario2.node[29].nic.mac1609_4 	throughputMedioBPS 	673091.29533524
scalar RSUExampleScenario2.node[34].nic.mac1609_4 	TotalLostPackets 	380
scalar RSUExampleScenario2.node[34].nic.mac1609_4 	delayMedio 	0.00082679021
scalar RSUExampleScenario2.node[34].nic.mac1609_4 	throughputMedioBPS 	4954098.3294991
scalar RSUExampleScenario2.node[9].nic.mac1609_4 	TotalLostPackets 	1941
scalar RSUExampleScenario2.node[9].nic.mac1609_4 	delayMedio 	0.005554663467
scalar RSUExampleScenario2.node[9].nic.mac1609_4 	throughputMedioBPS 	737398.40842058
scalar RSUExampleScenario2.node[15].nic.mac1609_4 	TotalLostPackets 	2186
scalar RSUExampleScenario2.node[15].nic.mac1609_4 	delayMedio 	0.006159296771
scalar RSUExampleScenario2.node[15].nic.mac1609_4 	throughputMedioBPS 	665010.98299967
scalar RSUExampleScenario2.node[20].nic.mac1609_4 	TotalLostPackets 	2012
scalar RSUExampleScenario2.node[20].nic.mac1609_4 	delayMedio 	0.003801637004
scalar RSUExampleScenario2.node[20].nic.mac1609_4 	throughputMedioBPS 	1077430.5899532
scalar RSUExampleScenario2.node[23].nic.mac1609_4 	TotalLostPackets 	1663
scalar RSUExampleScenario2.node[23].nic.mac1609_4 	delayMedio 	0.003990696209
scalar RSUExampleScenario2.node[23].nic.mac1609_4 	throughputMedioBPS 	1026387.3233919
scalar RSUExampleScenario2.node[25].nic.mac1609_4 	TotalLostPackets 	1569
scalar RSUExampleScenario2.node[25].nic.mac1609_4 	delayMedio 	0.004653211731
scalar RSUExampleScenario2.node[25].nic.mac1609_4 	throughputMedioBPS 	880252.22937541
scalar RSUExampleScenario2.node[4].nic.mac1609_4 	TotalLostPackets 	2292
scalar RSUExampleScenario2.node[4].nic.mac1609_4 	delayMedio 	0.005387932849
scalar RSUExampleScenario2.node[4].nic.mac1609_4 	throughputMedioBPS 	760217.34395635
scalar RSUExampleScenario2.node[19].nic.mac1609_4 	TotalLostPackets 	1987
scalar RSUExampleScenario2.node[19].nic.mac1609_4 	delayMedio 	0.003460220559
scalar RSUExampleScenario2.node[19].nic.mac1609_4 	throughputMedioBPS 	1183739.5710236
scalar RSUExampleScenario2.node[21].nic.mac1609_4 	TotalLostPackets 	1793
scalar RSUExampleScenario2.node[21].nic.mac1609_4 	delayMedio 	0.003681888491
scalar RSUExampleScenario2.node[21].nic.mac1609_4 	throughputMedioBPS 	1112472.5830548
scalar RSUExampleScenario2.node[24].nic.mac1609_4 	TotalLostPackets 	1612
scalar RSUExampleScenario2.node[24].nic.mac1609_4 	delayMedio 	0.00446287766
scalar RSUExampleScenario2.node[24].nic.mac1609_4 	throughputMedioBPS 	917793.47593452
scalar RSUExampleScenario2.node[26].nic.mac1609_4 	TotalLostPackets 	1254
scalar RSUExampleScenario2.node[26].nic.mac1609_4 	delayMedio 	0.004917054017
scalar RSUExampleScenario2.node[26].nic.mac1609_4 	throughputMedioBPS 	833019.1179841
scalar RSUExampleScenario2.node[30].nic.mac1609_4 	TotalLostPackets 	1237
scalar RSUExampleScenario2.node[30].nic.mac1609_4 	delayMedio 	0.005770877628
scalar RSUExampleScenario2.node[30].nic.mac1609_4 	throughputMedioBPS 	709770.72531461
scalar RSUExampleScenario2.node[31].nic.mac1609_4 	TotalLostPackets 	792
scalar RSUExampleScenario2.node[31].nic.mac1609_4 	delayMedio 	0.006853255474
scalar RSUExampleScenario2.node[31].nic.mac1609_4 	throughputMedioBPS 	597672.15969385
scalar RSUExampleScenario2.node[32].nic.mac1609_4 	TotalLostPackets 	670
scalar RSUExampleScenario2.node[32].nic.mac1609_4 	delayMedio 	0.000818975594
scalar RSUExampleScenario2.node[32].nic.mac1609_4 	throughputMedioBPS 	5001370.0426714
scalar RSUExampleScenario2.node[35].nic.mac1609_4 	TotalLostPackets 	151
scalar RSUExampleScenario2.node[35].nic.mac1609_4 	delayMedio 	0.000832452929
scalar RSUExampleScenario2.node[35].nic.mac1609_4 	throughputMedioBPS 	4920398.3306367
scalar RSUExampleScenario2.node[10].nic.mac1609_4 	TotalLostPackets 	2100
scalar RSUExampleScenario2.node[10].nic.mac1609_4 	delayMedio 	0.005763078349
scalar RSUExampleScenario2.node[10].nic.mac1609_4 	throughputMedioBPS 	710731.27104816
scalar RSUExampleScenario2.node[13].nic.mac1609_4 	TotalLostPackets 	2257
scalar RSUExampleScenario2.node[13].nic.mac1609_4 	delayMedio 	0.006143440218
scalar RSUExampleScenario2.node[13].nic.mac1609_4 	throughputMedioBPS 	666727.41239727
scalar RSUExampleScenario2.node[16].nic.mac1609_4 	TotalLostPackets 	2062
scalar RSUExampleScenario2.node[16].nic.mac1609_4 	delayMedio 	0.003595082057
scalar RSUExampleScenario2.node[16].nic.mac1609_4 	throughputMedioBPS 	1139334.216948
