version 2
run v1-1463-20171205-05:51:19-8763
attr configname v1
attr cwmax 4096
attr cwmin 32
attr datetime 20171205-05:51:19
attr experiment v1
attr inifile omnetpp.ini
attr iterationvars "$cwmin=32, $cwmax=4096, $slotlength=65, $txPower=100"
attr iterationvars2 "$cwmin=32, $cwmax=4096, $slotlength=65, $txPower=100, $repetition=0"
attr measurement "$cwmin=32, $cwmax=4096, $slotlength=65, $txPower=100"
attr network RSUExampleScenario2
attr processid 8763
attr repetition 0
attr replication #0
attr resultdir results
attr runnumber 1463
attr seedset 1463
attr slotlength 65
attr txPower 100
param **.coreDebug true
param **.debug true
param *.**.nic.mac1609_4.bitrate 6Mbps
param *.**.nic.mac1609_4.cwmax_ "${cwmax=1024, 2048, 4096}"
param *.**.nic.mac1609_4.cwmin_ "${cwmin=16, 32, 64}"
param *.**.nic.mac1609_4.slotlength_ "${slotlength=5..100 step 5}ms"
param *.**.nic.mac1609_4.txPower "${txPower=1.26, 2.51, 3.98, 10, 15.85, 25.12, 50.12, 100, 251.19, 501.19, 794.33, 1258.93, 1584.89}mW"
param *.**.nic.mac1609_4.useServiceChannel false
param *.**.nic.phy80211p.analogueModels "xmldoc(\"config.xml\")"
param *.**.nic.phy80211p.decider "xmldoc(\"config.xml\")"
param *.**.nic.phy80211p.sensitivity -89dBm
param *.**.nic.phy80211p.thermalNoise -110dBm
param *.**.nic.phy80211p.usePropagationDelay true
param *.**.nic.phy80211p.useThermalNoise true
param *.annotations.draw false
param *.connectionManager.alpha 2.0
param *.connectionManager.carrierFrequency "5.890e9 Hz"
param *.connectionManager.drawMaxIntfDist false
param *.connectionManager.maxInterfDist 2600m
param *.connectionManager.pMax 20mW
param *.connectionManager.sat -89dBm
param *.connectionManager.sendDirect true
param *.manager.autoShutdown true
param *.manager.host "\"localhost\""
param *.manager.launchConfig "xmldoc(\"osm.launchd.xml\")"
param *.manager.margin 25
param *.manager.moduleDisplayString "\"\""
param *.manager.moduleName "\"node\""
param *.manager.moduleType "\"org.car2x.veins.nodes.Car\""
param *.manager.port 9999
param *.manager.updateInterval 1s
param *.node[*].appl.beaconInterval "0.1 s"
param *.node[*].appl.beaconLengthBits "3960 bit"
param *.node[*].appl.beaconPriority 3
param *.node[*].appl.dataLengthBits "3960 bit"
param *.node[*].appl.dataOnSch false
param *.node[*].appl.dataPriority 2
param *.node[*].appl.debug false
param *.node[*].appl.headerLength "80 bit"
param *.node[*].appl.maxOffset "0.005 s"
param *.node[*].appl.sendBeacons true
param *.node[*].appl.sendData false
param *.node[*].applType "\"TraCIDemo11p\""
param *.node[*].mobilityType "\"TraCIMobility\""
param *.node[*].mobilityType.debug true
param *.node[*].veinsmobility.x 0
param *.node[*].veinsmobility.y 0
param *.node[*].veinsmobility.z 1.895
param *.node[*].veinsmobilityType "\"org.car2x.veins.modules.mobility.traci.TraCIMobility\""
param *.node[*].veinsmobilityType.debug true
param *.obstacles.debug false
param *.playgroundSizeX 2000m
param *.playgroundSizeY 2000m
param *.playgroundSizeZ 50m
param *.world.use2D false
param *.world.useTorus false

scalar . 	cwmax 	4096
scalar . 	cwmin 	32
scalar . 	slotlength 	65
scalar . 	txPower 	100
scalar RSUExampleScenario2.node[6].nic.mac1609_4 	TotalLostPackets 	0
scalar RSUExampleScenario2.node[6].nic.mac1609_4 	delayMedio 	0.000726280464
scalar RSUExampleScenario2.node[6].nic.mac1609_4 	throughputMedioBPS 	5639694.5815106
scalar RSUExampleScenario2.node[5].nic.mac1609_4 	TotalLostPackets 	0
scalar RSUExampleScenario2.node[5].nic.mac1609_4 	delayMedio 	0.005628257834
scalar RSUExampleScenario2.node[5].nic.mac1609_4 	throughputMedioBPS 	727756.28275862
scalar RSUExampleScenario2.node[0].nic.mac1609_4 	TotalLostPackets 	0
scalar RSUExampleScenario2.node[0].nic.mac1609_4 	delayMedio 	0.005490560904
scalar RSUExampleScenario2.node[0].nic.mac1609_4 	throughputMedioBPS 	746007.57041614
scalar RSUExampleScenario2.node[14].nic.mac1609_4 	TotalLostPackets 	110
scalar RSUExampleScenario2.node[14].nic.mac1609_4 	delayMedio 	0.006646066493
scalar RSUExampleScenario2.node[14].nic.mac1609_4 	throughputMedioBPS 	616304.39660484
scalar RSUExampleScenario2.node[7].nic.mac1609_4 	TotalLostPackets 	110
scalar RSUExampleScenario2.node[7].nic.mac1609_4 	delayMedio 	0.00626363124
scalar RSUExampleScenario2.node[7].nic.mac1609_4 	throughputMedioBPS 	653933.77148504
scalar RSUExampleScenario2.node[2].nic.mac1609_4 	TotalLostPackets 	220
scalar RSUExampleScenario2.node[2].nic.mac1609_4 	delayMedio 	0.005857403139
scalar RSUExampleScenario2.node[2].nic.mac1609_4 	throughputMedioBPS 	699285.99804878
scalar RSUExampleScenario2.node[8].nic.mac1609_4 	TotalLostPackets 	220
scalar RSUExampleScenario2.node[8].nic.mac1609_4 	delayMedio 	0.006118771035
scalar RSUExampleScenario2.node[8].nic.mac1609_4 	throughputMedioBPS 	669415.47191826
scalar RSUExampleScenario2.node[3].nic.mac1609_4 	TotalLostPackets 	380
scalar RSUExampleScenario2.node[3].nic.mac1609_4 	delayMedio 	0.005248134207
scalar RSUExampleScenario2.node[3].nic.mac1609_4 	throughputMedioBPS 	780467.84604717
scalar RSUExampleScenario2.node[11].nic.mac1609_4 	TotalLostPackets 	380
scalar RSUExampleScenario2.node[11].nic.mac1609_4 	delayMedio 	0.005750791858
scalar RSUExampleScenario2.node[11].nic.mac1609_4 	throughputMedioBPS 	712249.73902899
scalar RSUExampleScenario2.node[17].nic.mac1609_4 	TotalLostPackets 	160
scalar RSUExampleScenario2.node[17].nic.mac1609_4 	delayMedio 	0.00281569304
scalar RSUExampleScenario2.node[17].nic.mac1609_4 	throughputMedioBPS 	1454704.0253854
scalar RSUExampleScenario2.node[27].nic.mac1609_4 	TotalLostPackets 	360
scalar RSUExampleScenario2.node[27].nic.mac1609_4 	delayMedio 	0.00601821683
scalar RSUExampleScenario2.node[27].nic.mac1609_4 	throughputMedioBPS 	680600.27010101
scalar RSUExampleScenario2.node[12].nic.mac1609_4 	TotalLostPackets 	380
scalar RSUExampleScenario2.node[12].nic.mac1609_4 	delayMedio 	0.005730307014
scalar RSUExampleScenario2.node[12].nic.mac1609_4 	throughputMedioBPS 	714795.90713517
scalar RSUExampleScenario2.node[18].nic.mac1609_4 	TotalLostPackets 	380
scalar RSUExampleScenario2.node[18].nic.mac1609_4 	delayMedio 	0.003505406545
scalar RSUExampleScenario2.node[18].nic.mac1609_4 	throughputMedioBPS 	1168480.7303241
scalar RSUExampleScenario2.node[22].nic.mac1609_4 	TotalLostPackets 	380
scalar RSUExampleScenario2.node[22].nic.mac1609_4 	delayMedio 	0.004347417503
scalar RSUExampleScenario2.node[22].nic.mac1609_4 	throughputMedioBPS 	942168.53960758
scalar RSUExampleScenario2.node[28].nic.mac1609_4 	TotalLostPackets 	380
scalar RSUExampleScenario2.node[28].nic.mac1609_4 	delayMedio 	0.006354319566
scalar RSUExampleScenario2.node[28].nic.mac1609_4 	throughputMedioBPS 	644600.88251906
scalar RSUExampleScenario2.node[33].nic.mac1609_4 	TotalLostPackets 	80
scalar RSUExampleScenario2.node[33].nic.mac1609_4 	delayMedio 	0.000803385464
scalar RSUExampleScenario2.node[33].nic.mac1609_4 	throughputMedioBPS 	5098424.3343761
scalar RSUExampleScenario2.node[1].nic.mac1609_4 	TotalLostPackets 	380
scalar RSUExampleScenario2.node[1].nic.mac1609_4 	delayMedio 	0.005196872654
scalar RSUExampleScenario2.node[1].nic.mac1609_4 	throughputMedioBPS 	788166.3209166
scalar RSUExampleScenario2.node[29].nic.mac1609_4 	TotalLostPackets 	170
scalar RSUExampleScenario2.node[29].nic.mac1609_4 	delayMedio 	0.005473128727
scalar RSUExampleScenario2.node[29].nic.mac1609_4 	throughputMedioBPS 	748383.6401997
scalar RSUExampleScenario2.node[34].nic.mac1609_4 	TotalLostPackets 	134
scalar RSUExampleScenario2.node[34].nic.mac1609_4 	delayMedio 	0.000780219074
scalar RSUExampleScenario2.node[34].nic.mac1609_4 	throughputMedioBPS 	5249807.568509
scalar RSUExampleScenario2.node[9].nic.mac1609_4 	TotalLostPackets 	380
scalar RSUExampleScenario2.node[9].nic.mac1609_4 	delayMedio 	0.005523333463
scalar RSUExampleScenario2.node[9].nic.mac1609_4 	throughputMedioBPS 	741581.15333969
scalar RSUExampleScenario2.node[15].nic.mac1609_4 	TotalLostPackets 	340
scalar RSUExampleScenario2.node[15].nic.mac1609_4 	delayMedio 	0.006037916371
scalar RSUExampleScenario2.node[15].nic.mac1609_4 	throughputMedioBPS 	678379.71717812
scalar RSUExampleScenario2.node[20].nic.mac1609_4 	TotalLostPackets 	106
scalar RSUExampleScenario2.node[20].nic.mac1609_4 	delayMedio 	0.003194226028
scalar RSUExampleScenario2.node[20].nic.mac1609_4 	throughputMedioBPS 	1282313.763693
scalar RSUExampleScenario2.node[23].nic.mac1609_4 	TotalLostPackets 	380
scalar RSUExampleScenario2.node[23].nic.mac1609_4 	delayMedio 	0.004348098791
scalar RSUExampleScenario2.node[23].nic.mac1609_4 	throughputMedioBPS 	942020.91464298
scalar RSUExampleScenario2.node[25].nic.mac1609_4 	TotalLostPackets 	220
scalar RSUExampleScenario2.node[25].nic.mac1609_4 	delayMedio 	0.004996359724
scalar RSUExampleScenario2.node[25].nic.mac1609_4 	throughputMedioBPS 	819796.85729465
scalar RSUExampleScenario2.node[4].nic.mac1609_4 	TotalLostPackets 	380
scalar RSUExampleScenario2.node[4].nic.mac1609_4 	delayMedio 	0.005284937618
scalar RSUExampleScenario2.node[4].nic.mac1609_4 	throughputMedioBPS 	775032.80008629
scalar RSUExampleScenario2.node[19].nic.mac1609_4 	TotalLostPackets 	374
scalar RSUExampleScenario2.node[19].nic.mac1609_4 	delayMedio 	0.003788169872
scalar RSUExampleScenario2.node[19].nic.mac1609_4 	throughputMedioBPS 	1081260.9092004
scalar RSUExampleScenario2.node[21].nic.mac1609_4 	TotalLostPackets 	380
scalar RSUExampleScenario2.node[21].nic.mac1609_4 	delayMedio 	0.003992463952
scalar RSUExampleScenario2.node[21].nic.mac1609_4 	throughputMedioBPS 	1025932.8699322
scalar RSUExampleScenario2.node[24].nic.mac1609_4 	TotalLostPackets 	83
scalar RSUExampleScenario2.node[24].nic.mac1609_4 	delayMedio 	0.003612645685
scalar RSUExampleScenario2.node[24].nic.mac1609_4 	throughputMedioBPS 	1133795.1068584
scalar RSUExampleScenario2.node[26].nic.mac1609_4 	TotalLostPackets 	380
scalar RSUExampleScenario2.node[26].nic.mac1609_4 	delayMedio 	0.005453794107
scalar RSUExampleScenario2.node[26].nic.mac1609_4 	throughputMedioBPS 	751036.78641648
scalar RSUExampleScenario2.node[30].nic.mac1609_4 	TotalLostPackets 	160
scalar RSUExampleScenario2.node[30].nic.mac1609_4 	delayMedio 	0.005602357685
scalar RSUExampleScenario2.node[30].nic.mac1609_4 	throughputMedioBPS 	731120.75851
scalar RSUExampleScenario2.node[31].nic.mac1609_4 	TotalLostPackets 	160
scalar RSUExampleScenario2.node[31].nic.mac1609_4 	delayMedio 	0.006623307601
scalar RSUExampleScenario2.node[31].nic.mac1609_4 	throughputMedioBPS 	618422.13086123
scalar RSUExampleScenario2.node[32].nic.mac1609_4 	TotalLostPackets 	80
scalar RSUExampleScenario2.node[32].nic.mac1609_4 	delayMedio 	0.000796293018
scalar RSUExampleScenario2.node[32].nic.mac1609_4 	throughputMedioBPS 	5143835.1329038
scalar RSUExampleScenario2.node[35].nic.mac1609_4 	TotalLostPackets 	60
scalar RSUExampleScenario2.node[35].nic.mac1609_4 	delayMedio 	0.000801650156
scalar RSUExampleScenario2.node[35].nic.mac1609_4 	throughputMedioBPS 	5109460.7409344
scalar RSUExampleScenario2.node[10].nic.mac1609_4 	TotalLostPackets 	300
scalar RSUExampleScenario2.node[10].nic.mac1609_4 	delayMedio 	0.005612194815
scalar RSUExampleScenario2.node[10].nic.mac1609_4 	throughputMedioBPS 	729839.24032661
scalar RSUExampleScenario2.node[13].nic.mac1609_4 	TotalLostPackets 	380
scalar RSUExampleScenario2.node[13].nic.mac1609_4 	delayMedio 	0.005909260313
scalar RSUExampleScenario2.node[13].nic.mac1609_4 	throughputMedioBPS 	693149.35933242
scalar RSUExampleScenario2.node[16].nic.mac1609_4 	TotalLostPackets 	300
scalar RSUExampleScenario2.node[16].nic.mac1609_4 	delayMedio 	0.003798396374
scalar RSUExampleScenario2.node[16].nic.mac1609_4 	throughputMedioBPS 	1078349.807826
