version 2
run v1-1154-20171204-06:16:51-8763
attr configname v1
attr cwmax 2048
attr cwmin 32
attr datetime 20171204-06:16:51
attr experiment v1
attr inifile omnetpp.ini
attr iterationvars "$cwmin=32, $cwmax=2048, $slotlength=45, $txPower=794.33"
attr iterationvars2 "$cwmin=32, $cwmax=2048, $slotlength=45, $txPower=794.33, $repetition=0"
attr measurement "$cwmin=32, $cwmax=2048, $slotlength=45, $txPower=794.33"
attr network RSUExampleScenario2
attr processid 8763
attr repetition 0
attr replication #0
attr resultdir results
attr runnumber 1154
attr seedset 1154
attr slotlength 45
attr txPower 794.33
param **.coreDebug true
param **.debug true
param *.**.nic.mac1609_4.bitrate 6Mbps
param *.**.nic.mac1609_4.cwmax_ "${cwmax=1024, 2048, 4096}"
param *.**.nic.mac1609_4.cwmin_ "${cwmin=16, 32, 64}"
param *.**.nic.mac1609_4.slotlength_ "${slotlength=5..100 step 5}ms"
param *.**.nic.mac1609_4.txPower "${txPower=1.26, 2.51, 3.98, 10, 15.85, 25.12, 50.12, 100, 251.19, 501.19, 794.33, 1258.93, 1584.89}mW"
param *.**.nic.mac1609_4.useServiceChannel false
param *.**.nic.phy80211p.analogueModels "xmldoc(\"config.xml\")"
param *.**.nic.phy80211p.decider "xmldoc(\"config.xml\")"
param *.**.nic.phy80211p.sensitivity -89dBm
param *.**.nic.phy80211p.thermalNoise -110dBm
param *.**.nic.phy80211p.usePropagationDelay true
param *.**.nic.phy80211p.useThermalNoise true
param *.annotations.draw false
param *.connectionManager.alpha 2.0
param *.connectionManager.carrierFrequency "5.890e9 Hz"
param *.connectionManager.drawMaxIntfDist false
param *.connectionManager.maxInterfDist 2600m
param *.connectionManager.pMax 20mW
param *.connectionManager.sat -89dBm
param *.connectionManager.sendDirect true
param *.manager.autoShutdown true
param *.manager.host "\"localhost\""
param *.manager.launchConfig "xmldoc(\"osm.launchd.xml\")"
param *.manager.margin 25
param *.manager.moduleDisplayString "\"\""
param *.manager.moduleName "\"node\""
param *.manager.moduleType "\"org.car2x.veins.nodes.Car\""
param *.manager.port 9999
param *.manager.updateInterval 1s
param *.node[*].appl.beaconInterval "0.1 s"
param *.node[*].appl.beaconLengthBits "3960 bit"
param *.node[*].appl.beaconPriority 3
param *.node[*].appl.dataLengthBits "3960 bit"
param *.node[*].appl.dataOnSch false
param *.node[*].appl.dataPriority 2
param *.node[*].appl.debug false
param *.node[*].appl.headerLength "80 bit"
param *.node[*].appl.maxOffset "0.005 s"
param *.node[*].appl.sendBeacons true
param *.node[*].appl.sendData false
param *.node[*].applType "\"TraCIDemo11p\""
param *.node[*].mobilityType "\"TraCIMobility\""
param *.node[*].mobilityType.debug true
param *.node[*].veinsmobility.x 0
param *.node[*].veinsmobility.y 0
param *.node[*].veinsmobility.z 1.895
param *.node[*].veinsmobilityType "\"org.car2x.veins.modules.mobility.traci.TraCIMobility\""
param *.node[*].veinsmobilityType.debug true
param *.obstacles.debug false
param *.playgroundSizeX 2000m
param *.playgroundSizeY 2000m
param *.playgroundSizeZ 50m
param *.world.use2D false
param *.world.useTorus false

scalar . 	cwmax 	2048
scalar . 	cwmin 	32
scalar . 	slotlength 	45
scalar . 	txPower 	794.33
scalar RSUExampleScenario2.node[6].nic.mac1609_4 	TotalLostPackets 	0
scalar RSUExampleScenario2.node[6].nic.mac1609_4 	delayMedio 	0.000723259641
scalar RSUExampleScenario2.node[6].nic.mac1609_4 	throughputMedioBPS 	5663249.7792378
scalar RSUExampleScenario2.node[5].nic.mac1609_4 	TotalLostPackets 	0
scalar RSUExampleScenario2.node[5].nic.mac1609_4 	delayMedio 	0.005565744399
scalar RSUExampleScenario2.node[5].nic.mac1609_4 	throughputMedioBPS 	735930.30985547
scalar RSUExampleScenario2.node[0].nic.mac1609_4 	TotalLostPackets 	0
scalar RSUExampleScenario2.node[0].nic.mac1609_4 	delayMedio 	0.005413953845
scalar RSUExampleScenario2.node[0].nic.mac1609_4 	throughputMedioBPS 	756563.52410955
scalar RSUExampleScenario2.node[14].nic.mac1609_4 	TotalLostPackets 	0
scalar RSUExampleScenario2.node[14].nic.mac1609_4 	delayMedio 	0.006629523592
scalar RSUExampleScenario2.node[14].nic.mac1609_4 	throughputMedioBPS 	617842.28427195
scalar RSUExampleScenario2.node[7].nic.mac1609_4 	TotalLostPackets 	0
scalar RSUExampleScenario2.node[7].nic.mac1609_4 	delayMedio 	0.005583727054
scalar RSUExampleScenario2.node[7].nic.mac1609_4 	throughputMedioBPS 	733560.21176975
scalar RSUExampleScenario2.node[2].nic.mac1609_4 	TotalLostPackets 	0
scalar RSUExampleScenario2.node[2].nic.mac1609_4 	delayMedio 	0.005331909836
scalar RSUExampleScenario2.node[2].nic.mac1609_4 	throughputMedioBPS 	768205.03830937
scalar RSUExampleScenario2.node[8].nic.mac1609_4 	TotalLostPackets 	0
scalar RSUExampleScenario2.node[8].nic.mac1609_4 	delayMedio 	0.005484763045
scalar RSUExampleScenario2.node[8].nic.mac1609_4 	throughputMedioBPS 	746796.16348825
scalar RSUExampleScenario2.node[3].nic.mac1609_4 	TotalLostPackets 	0
scalar RSUExampleScenario2.node[3].nic.mac1609_4 	delayMedio 	0.004750074361
scalar RSUExampleScenario2.node[3].nic.mac1609_4 	throughputMedioBPS 	862302.29019019
scalar RSUExampleScenario2.node[11].nic.mac1609_4 	TotalLostPackets 	0
scalar RSUExampleScenario2.node[11].nic.mac1609_4 	delayMedio 	0.005181906296
scalar RSUExampleScenario2.node[11].nic.mac1609_4 	throughputMedioBPS 	790442.69925419
scalar RSUExampleScenario2.node[17].nic.mac1609_4 	TotalLostPackets 	0
scalar RSUExampleScenario2.node[17].nic.mac1609_4 	delayMedio 	0.002924068051
scalar RSUExampleScenario2.node[17].nic.mac1609_4 	throughputMedioBPS 	1400788.1926658
scalar RSUExampleScenario2.node[27].nic.mac1609_4 	TotalLostPackets 	0
scalar RSUExampleScenario2.node[27].nic.mac1609_4 	delayMedio 	0.005082135228
scalar RSUExampleScenario2.node[27].nic.mac1609_4 	throughputMedioBPS 	805960.45090064
scalar RSUExampleScenario2.node[12].nic.mac1609_4 	TotalLostPackets 	0
scalar RSUExampleScenario2.node[12].nic.mac1609_4 	delayMedio 	0.005190239989
scalar RSUExampleScenario2.node[12].nic.mac1609_4 	throughputMedioBPS 	789173.52734022
scalar RSUExampleScenario2.node[18].nic.mac1609_4 	TotalLostPackets 	0
scalar RSUExampleScenario2.node[18].nic.mac1609_4 	delayMedio 	0.00293231543
scalar RSUExampleScenario2.node[18].nic.mac1609_4 	throughputMedioBPS 	1396848.3602112
scalar RSUExampleScenario2.node[22].nic.mac1609_4 	TotalLostPackets 	0
scalar RSUExampleScenario2.node[22].nic.mac1609_4 	delayMedio 	0.003602404341
scalar RSUExampleScenario2.node[22].nic.mac1609_4 	throughputMedioBPS 	1137018.3943267
scalar RSUExampleScenario2.node[28].nic.mac1609_4 	TotalLostPackets 	0
scalar RSUExampleScenario2.node[28].nic.mac1609_4 	delayMedio 	0.005087905933
scalar RSUExampleScenario2.node[28].nic.mac1609_4 	throughputMedioBPS 	805046.33031141
scalar RSUExampleScenario2.node[33].nic.mac1609_4 	TotalLostPackets 	0
scalar RSUExampleScenario2.node[33].nic.mac1609_4 	delayMedio 	0.000760636175
scalar RSUExampleScenario2.node[33].nic.mac1609_4 	throughputMedioBPS 	5384966.0788716
scalar RSUExampleScenario2.node[1].nic.mac1609_4 	TotalLostPackets 	0
scalar RSUExampleScenario2.node[1].nic.mac1609_4 	delayMedio 	0.004718359224
scalar RSUExampleScenario2.node[1].nic.mac1609_4 	throughputMedioBPS 	868098.38023509
scalar RSUExampleScenario2.node[29].nic.mac1609_4 	TotalLostPackets 	0
scalar RSUExampleScenario2.node[29].nic.mac1609_4 	delayMedio 	0.005082691165
scalar RSUExampleScenario2.node[29].nic.mac1609_4 	throughputMedioBPS 	805872.29622423
scalar RSUExampleScenario2.node[34].nic.mac1609_4 	TotalLostPackets 	0
scalar RSUExampleScenario2.node[34].nic.mac1609_4 	delayMedio 	0.000759768453
scalar RSUExampleScenario2.node[34].nic.mac1609_4 	throughputMedioBPS 	5391116.1768284
scalar RSUExampleScenario2.node[9].nic.mac1609_4 	TotalLostPackets 	0
scalar RSUExampleScenario2.node[9].nic.mac1609_4 	delayMedio 	0.004992004847
scalar RSUExampleScenario2.node[9].nic.mac1609_4 	throughputMedioBPS 	820512.02382076
scalar RSUExampleScenario2.node[15].nic.mac1609_4 	TotalLostPackets 	0
scalar RSUExampleScenario2.node[15].nic.mac1609_4 	delayMedio 	0.005352017736
scalar RSUExampleScenario2.node[15].nic.mac1609_4 	throughputMedioBPS 	765318.83904143
scalar RSUExampleScenario2.node[20].nic.mac1609_4 	TotalLostPackets 	0
scalar RSUExampleScenario2.node[20].nic.mac1609_4 	delayMedio 	0.003387256869
scalar RSUExampleScenario2.node[20].nic.mac1609_4 	throughputMedioBPS 	1209238.0821522
scalar RSUExampleScenario2.node[23].nic.mac1609_4 	TotalLostPackets 	0
scalar RSUExampleScenario2.node[23].nic.mac1609_4 	delayMedio 	0.003597383231
scalar RSUExampleScenario2.node[23].nic.mac1609_4 	throughputMedioBPS 	1138605.4077129
scalar RSUExampleScenario2.node[25].nic.mac1609_4 	TotalLostPackets 	0
scalar RSUExampleScenario2.node[25].nic.mac1609_4 	delayMedio 	0.004121239465
scalar RSUExampleScenario2.node[25].nic.mac1609_4 	throughputMedioBPS 	993875.7587306
scalar RSUExampleScenario2.node[4].nic.mac1609_4 	TotalLostPackets 	0
scalar RSUExampleScenario2.node[4].nic.mac1609_4 	delayMedio 	0.004768940379
scalar RSUExampleScenario2.node[4].nic.mac1609_4 	throughputMedioBPS 	858891.00606289
scalar RSUExampleScenario2.node[19].nic.mac1609_4 	TotalLostPackets 	0
scalar RSUExampleScenario2.node[19].nic.mac1609_4 	delayMedio 	0.003118007289
scalar RSUExampleScenario2.node[19].nic.mac1609_4 	throughputMedioBPS 	1313659.5330687
scalar RSUExampleScenario2.node[21].nic.mac1609_4 	TotalLostPackets 	0
scalar RSUExampleScenario2.node[21].nic.mac1609_4 	delayMedio 	0.003337692336
scalar RSUExampleScenario2.node[21].nic.mac1609_4 	throughputMedioBPS 	1227195.1958223
scalar RSUExampleScenario2.node[24].nic.mac1609_4 	TotalLostPackets 	0
scalar RSUExampleScenario2.node[24].nic.mac1609_4 	delayMedio 	0.003953403396
scalar RSUExampleScenario2.node[24].nic.mac1609_4 	throughputMedioBPS 	1036069.3279384
scalar RSUExampleScenario2.node[26].nic.mac1609_4 	TotalLostPackets 	0
scalar RSUExampleScenario2.node[26].nic.mac1609_4 	delayMedio 	0.004427624903
scalar RSUExampleScenario2.node[26].nic.mac1609_4 	throughputMedioBPS 	925100.94915023
scalar RSUExampleScenario2.node[30].nic.mac1609_4 	TotalLostPackets 	0
scalar RSUExampleScenario2.node[30].nic.mac1609_4 	delayMedio 	0.005101948701
scalar RSUExampleScenario2.node[30].nic.mac1609_4 	throughputMedioBPS 	802830.49482845
scalar RSUExampleScenario2.node[31].nic.mac1609_4 	TotalLostPackets 	0
scalar RSUExampleScenario2.node[31].nic.mac1609_4 	delayMedio 	0.006247500255
scalar RSUExampleScenario2.node[31].nic.mac1609_4 	throughputMedioBPS 	655622.2221064
scalar RSUExampleScenario2.node[32].nic.mac1609_4 	TotalLostPackets 	0
scalar RSUExampleScenario2.node[32].nic.mac1609_4 	delayMedio 	0.000755089625
scalar RSUExampleScenario2.node[32].nic.mac1609_4 	throughputMedioBPS 	5424521.6263738
scalar RSUExampleScenario2.node[35].nic.mac1609_4 	TotalLostPackets 	0
scalar RSUExampleScenario2.node[35].nic.mac1609_4 	delayMedio 	0.00075914554
scalar RSUExampleScenario2.node[35].nic.mac1609_4 	throughputMedioBPS 	5395539.8320879
scalar RSUExampleScenario2.node[10].nic.mac1609_4 	TotalLostPackets 	0
scalar RSUExampleScenario2.node[10].nic.mac1609_4 	delayMedio 	0.005083851452
scalar RSUExampleScenario2.node[10].nic.mac1609_4 	throughputMedioBPS 	805688.37210432
scalar RSUExampleScenario2.node[13].nic.mac1609_4 	TotalLostPackets 	0
scalar RSUExampleScenario2.node[13].nic.mac1609_4 	delayMedio 	0.005324118745
scalar RSUExampleScenario2.node[13].nic.mac1609_4 	throughputMedioBPS 	769329.19728437
scalar RSUExampleScenario2.node[16].nic.mac1609_4 	TotalLostPackets 	0
scalar RSUExampleScenario2.node[16].nic.mac1609_4 	delayMedio 	0.003268688388
scalar RSUExampleScenario2.node[16].nic.mac1609_4 	throughputMedioBPS 	1253102.0131833
