version 2
run v1-917-20171203-12:03:18-8763
attr configname v1
attr cwmax 1024
attr cwmin 32
attr datetime 20171203-12:03:18
attr experiment v1
attr inifile omnetpp.ini
attr iterationvars "$cwmin=32, $cwmax=1024, $slotlength=55, $txPower=100"
attr iterationvars2 "$cwmin=32, $cwmax=1024, $slotlength=55, $txPower=100, $repetition=0"
attr measurement "$cwmin=32, $cwmax=1024, $slotlength=55, $txPower=100"
attr network RSUExampleScenario2
attr processid 8763
attr repetition 0
attr replication #0
attr resultdir results
attr runnumber 917
attr seedset 917
attr slotlength 55
attr txPower 100
param **.coreDebug true
param **.debug true
param *.**.nic.mac1609_4.bitrate 6Mbps
param *.**.nic.mac1609_4.cwmax_ "${cwmax=1024, 2048, 4096}"
param *.**.nic.mac1609_4.cwmin_ "${cwmin=16, 32, 64}"
param *.**.nic.mac1609_4.slotlength_ "${slotlength=5..100 step 5}ms"
param *.**.nic.mac1609_4.txPower "${txPower=1.26, 2.51, 3.98, 10, 15.85, 25.12, 50.12, 100, 251.19, 501.19, 794.33, 1258.93, 1584.89}mW"
param *.**.nic.mac1609_4.useServiceChannel false
param *.**.nic.phy80211p.analogueModels "xmldoc(\"config.xml\")"
param *.**.nic.phy80211p.decider "xmldoc(\"config.xml\")"
param *.**.nic.phy80211p.sensitivity -89dBm
param *.**.nic.phy80211p.thermalNoise -110dBm
param *.**.nic.phy80211p.usePropagationDelay true
param *.**.nic.phy80211p.useThermalNoise true
param *.annotations.draw false
param *.connectionManager.alpha 2.0
param *.connectionManager.carrierFrequency "5.890e9 Hz"
param *.connectionManager.drawMaxIntfDist false
param *.connectionManager.maxInterfDist 2600m
param *.connectionManager.pMax 20mW
param *.connectionManager.sat -89dBm
param *.connectionManager.sendDirect true
param *.manager.autoShutdown true
param *.manager.host "\"localhost\""
param *.manager.launchConfig "xmldoc(\"osm.launchd.xml\")"
param *.manager.margin 25
param *.manager.moduleDisplayString "\"\""
param *.manager.moduleName "\"node\""
param *.manager.moduleType "\"org.car2x.veins.nodes.Car\""
param *.manager.port 9999
param *.manager.updateInterval 1s
param *.node[*].appl.beaconInterval "0.1 s"
param *.node[*].appl.beaconLengthBits "3960 bit"
param *.node[*].appl.beaconPriority 3
param *.node[*].appl.dataLengthBits "3960 bit"
param *.node[*].appl.dataOnSch false
param *.node[*].appl.dataPriority 2
param *.node[*].appl.debug false
param *.node[*].appl.headerLength "80 bit"
param *.node[*].appl.maxOffset "0.005 s"
param *.node[*].appl.sendBeacons true
param *.node[*].appl.sendData false
param *.node[*].applType "\"TraCIDemo11p\""
param *.node[*].mobilityType "\"TraCIMobility\""
param *.node[*].mobilityType.debug true
param *.node[*].veinsmobility.x 0
param *.node[*].veinsmobility.y 0
param *.node[*].veinsmobility.z 1.895
param *.node[*].veinsmobilityType "\"org.car2x.veins.modules.mobility.traci.TraCIMobility\""
param *.node[*].veinsmobilityType.debug true
param *.obstacles.debug false
param *.playgroundSizeX 2000m
param *.playgroundSizeY 2000m
param *.playgroundSizeZ 50m
param *.world.use2D false
param *.world.useTorus false

scalar . 	cwmax 	1024
scalar . 	cwmin 	32
scalar . 	slotlength 	55
scalar . 	txPower 	100
scalar RSUExampleScenario2.node[6].nic.mac1609_4 	TotalLostPackets 	0
scalar RSUExampleScenario2.node[6].nic.mac1609_4 	delayMedio 	0.000777962045
scalar RSUExampleScenario2.node[6].nic.mac1609_4 	throughputMedioBPS 	5265038.3499009
scalar RSUExampleScenario2.node[5].nic.mac1609_4 	TotalLostPackets 	2
scalar RSUExampleScenario2.node[5].nic.mac1609_4 	delayMedio 	0.005578723297
scalar RSUExampleScenario2.node[5].nic.mac1609_4 	throughputMedioBPS 	734218.16822915
scalar RSUExampleScenario2.node[0].nic.mac1609_4 	TotalLostPackets 	2
scalar RSUExampleScenario2.node[0].nic.mac1609_4 	delayMedio 	0.005428159218
scalar RSUExampleScenario2.node[0].nic.mac1609_4 	throughputMedioBPS 	754583.61401194
scalar RSUExampleScenario2.node[14].nic.mac1609_4 	TotalLostPackets 	132
scalar RSUExampleScenario2.node[14].nic.mac1609_4 	delayMedio 	0.006610882548
scalar RSUExampleScenario2.node[14].nic.mac1609_4 	throughputMedioBPS 	619584.44584237
scalar RSUExampleScenario2.node[7].nic.mac1609_4 	TotalLostPackets 	285
scalar RSUExampleScenario2.node[7].nic.mac1609_4 	delayMedio 	0.006312267916
scalar RSUExampleScenario2.node[7].nic.mac1609_4 	throughputMedioBPS 	648895.14422033
scalar RSUExampleScenario2.node[2].nic.mac1609_4 	TotalLostPackets 	421
scalar RSUExampleScenario2.node[2].nic.mac1609_4 	delayMedio 	0.005905161376
scalar RSUExampleScenario2.node[2].nic.mac1609_4 	throughputMedioBPS 	693630.4935856
scalar RSUExampleScenario2.node[8].nic.mac1609_4 	TotalLostPackets 	482
scalar RSUExampleScenario2.node[8].nic.mac1609_4 	delayMedio 	0.006200513095
scalar RSUExampleScenario2.node[8].nic.mac1609_4 	throughputMedioBPS 	660590.49261829
scalar RSUExampleScenario2.node[3].nic.mac1609_4 	TotalLostPackets 	408
scalar RSUExampleScenario2.node[3].nic.mac1609_4 	delayMedio 	0.005246898735
scalar RSUExampleScenario2.node[3].nic.mac1609_4 	throughputMedioBPS 	780651.62042615
scalar RSUExampleScenario2.node[11].nic.mac1609_4 	TotalLostPackets 	371
scalar RSUExampleScenario2.node[11].nic.mac1609_4 	delayMedio 	0.005732787158
scalar RSUExampleScenario2.node[11].nic.mac1609_4 	throughputMedioBPS 	714486.66890028
scalar RSUExampleScenario2.node[17].nic.mac1609_4 	TotalLostPackets 	270
scalar RSUExampleScenario2.node[17].nic.mac1609_4 	delayMedio 	0.002843603374
scalar RSUExampleScenario2.node[17].nic.mac1609_4 	throughputMedioBPS 	1440425.9180208
scalar RSUExampleScenario2.node[27].nic.mac1609_4 	TotalLostPackets 	453
scalar RSUExampleScenario2.node[27].nic.mac1609_4 	delayMedio 	0.006169837483
scalar RSUExampleScenario2.node[27].nic.mac1609_4 	throughputMedioBPS 	663874.86078696
scalar RSUExampleScenario2.node[12].nic.mac1609_4 	TotalLostPackets 	331
scalar RSUExampleScenario2.node[12].nic.mac1609_4 	delayMedio 	0.00570080876
scalar RSUExampleScenario2.node[12].nic.mac1609_4 	throughputMedioBPS 	718494.54572618
scalar RSUExampleScenario2.node[18].nic.mac1609_4 	TotalLostPackets 	357
scalar RSUExampleScenario2.node[18].nic.mac1609_4 	delayMedio 	0.003538407537
scalar RSUExampleScenario2.node[18].nic.mac1609_4 	throughputMedioBPS 	1157582.8835556
scalar RSUExampleScenario2.node[22].nic.mac1609_4 	TotalLostPackets 	393
scalar RSUExampleScenario2.node[22].nic.mac1609_4 	delayMedio 	0.004385578752
scalar RSUExampleScenario2.node[22].nic.mac1609_4 	throughputMedioBPS 	933970.23096847
scalar RSUExampleScenario2.node[28].nic.mac1609_4 	TotalLostPackets 	400
scalar RSUExampleScenario2.node[28].nic.mac1609_4 	delayMedio 	0.006395997232
scalar RSUExampleScenario2.node[28].nic.mac1609_4 	throughputMedioBPS 	640400.52725889
scalar RSUExampleScenario2.node[33].nic.mac1609_4 	TotalLostPackets 	0
scalar RSUExampleScenario2.node[33].nic.mac1609_4 	delayMedio 	0.000795295055
scalar RSUExampleScenario2.node[33].nic.mac1609_4 	throughputMedioBPS 	5150289.785307
scalar RSUExampleScenario2.node[1].nic.mac1609_4 	TotalLostPackets 	419
scalar RSUExampleScenario2.node[1].nic.mac1609_4 	delayMedio 	0.005215927248
scalar RSUExampleScenario2.node[1].nic.mac1609_4 	throughputMedioBPS 	785287.02675856
scalar RSUExampleScenario2.node[29].nic.mac1609_4 	TotalLostPackets 	240
scalar RSUExampleScenario2.node[29].nic.mac1609_4 	delayMedio 	0.00556934578
scalar RSUExampleScenario2.node[29].nic.mac1609_4 	throughputMedioBPS 	735454.42535433
scalar RSUExampleScenario2.node[34].nic.mac1609_4 	TotalLostPackets 	0
scalar RSUExampleScenario2.node[34].nic.mac1609_4 	delayMedio 	0.000813597145
scalar RSUExampleScenario2.node[34].nic.mac1609_4 	throughputMedioBPS 	5034432.6100903
scalar RSUExampleScenario2.node[9].nic.mac1609_4 	TotalLostPackets 	482
scalar RSUExampleScenario2.node[9].nic.mac1609_4 	delayMedio 	0.005547474763
scalar RSUExampleScenario2.node[9].nic.mac1609_4 	throughputMedioBPS 	738353.96729724
scalar RSUExampleScenario2.node[15].nic.mac1609_4 	TotalLostPackets 	482
scalar RSUExampleScenario2.node[15].nic.mac1609_4 	delayMedio 	0.006081497618
scalar RSUExampleScenario2.node[15].nic.mac1609_4 	throughputMedioBPS 	673518.31028559
scalar RSUExampleScenario2.node[20].nic.mac1609_4 	TotalLostPackets 	150
scalar RSUExampleScenario2.node[20].nic.mac1609_4 	delayMedio 	0.003204086867
scalar RSUExampleScenario2.node[20].nic.mac1609_4 	throughputMedioBPS 	1278367.3382341
scalar RSUExampleScenario2.node[23].nic.mac1609_4 	TotalLostPackets 	440
scalar RSUExampleScenario2.node[23].nic.mac1609_4 	delayMedio 	0.004400241734
scalar RSUExampleScenario2.node[23].nic.mac1609_4 	throughputMedioBPS 	930857.95009565
scalar RSUExampleScenario2.node[25].nic.mac1609_4 	TotalLostPackets 	400
scalar RSUExampleScenario2.node[25].nic.mac1609_4 	delayMedio 	0.005131320491
scalar RSUExampleScenario2.node[25].nic.mac1609_4 	throughputMedioBPS 	798235.07555473
scalar RSUExampleScenario2.node[4].nic.mac1609_4 	TotalLostPackets 	402
scalar RSUExampleScenario2.node[4].nic.mac1609_4 	delayMedio 	0.005277031286
scalar RSUExampleScenario2.node[4].nic.mac1609_4 	throughputMedioBPS 	776193.99579978
scalar RSUExampleScenario2.node[19].nic.mac1609_4 	TotalLostPackets 	394
scalar RSUExampleScenario2.node[19].nic.mac1609_4 	delayMedio 	0.003837152098
scalar RSUExampleScenario2.node[19].nic.mac1609_4 	throughputMedioBPS 	1067458.3377113
scalar RSUExampleScenario2.node[21].nic.mac1609_4 	TotalLostPackets 	480
scalar RSUExampleScenario2.node[21].nic.mac1609_4 	delayMedio 	0.004062647246
scalar RSUExampleScenario2.node[21].nic.mac1609_4 	throughputMedioBPS 	1008209.6110202
scalar RSUExampleScenario2.node[24].nic.mac1609_4 	TotalLostPackets 	150
scalar RSUExampleScenario2.node[24].nic.mac1609_4 	delayMedio 	0.003648695986
scalar RSUExampleScenario2.node[24].nic.mac1609_4 	throughputMedioBPS 	1122592.8429805
scalar RSUExampleScenario2.node[26].nic.mac1609_4 	TotalLostPackets 	480
scalar RSUExampleScenario2.node[26].nic.mac1609_4 	delayMedio 	0.005540695081
scalar RSUExampleScenario2.node[26].nic.mac1609_4 	throughputMedioBPS 	739257.42890989
scalar RSUExampleScenario2.node[30].nic.mac1609_4 	TotalLostPackets 	340
scalar RSUExampleScenario2.node[30].nic.mac1609_4 	delayMedio 	0.005778080337
scalar RSUExampleScenario2.node[30].nic.mac1609_4 	throughputMedioBPS 	708885.95542016
scalar RSUExampleScenario2.node[31].nic.mac1609_4 	TotalLostPackets 	190
scalar RSUExampleScenario2.node[31].nic.mac1609_4 	delayMedio 	0.00671036972
scalar RSUExampleScenario2.node[31].nic.mac1609_4 	throughputMedioBPS 	610398.55793578
scalar RSUExampleScenario2.node[32].nic.mac1609_4 	TotalLostPackets 	140
scalar RSUExampleScenario2.node[32].nic.mac1609_4 	delayMedio 	0.000773203699
scalar RSUExampleScenario2.node[32].nic.mac1609_4 	throughputMedioBPS 	5297439.7339946
scalar RSUExampleScenario2.node[35].nic.mac1609_4 	TotalLostPackets 	0
scalar RSUExampleScenario2.node[35].nic.mac1609_4 	delayMedio 	0.000811777654
scalar RSUExampleScenario2.node[35].nic.mac1609_4 	throughputMedioBPS 	5045716.6171243
scalar RSUExampleScenario2.node[10].nic.mac1609_4 	TotalLostPackets 	452
scalar RSUExampleScenario2.node[10].nic.mac1609_4 	delayMedio 	0.005651467324
scalar RSUExampleScenario2.node[10].nic.mac1609_4 	throughputMedioBPS 	724767.52761368
scalar RSUExampleScenario2.node[13].nic.mac1609_4 	TotalLostPackets 	341
scalar RSUExampleScenario2.node[13].nic.mac1609_4 	delayMedio 	0.005872804914
scalar RSUExampleScenario2.node[13].nic.mac1609_4 	throughputMedioBPS 	697452.07953528
scalar RSUExampleScenario2.node[16].nic.mac1609_4 	TotalLostPackets 	440
scalar RSUExampleScenario2.node[16].nic.mac1609_4 	delayMedio 	0.003849188729
scalar RSUExampleScenario2.node[16].nic.mac1609_4 	throughputMedioBPS 	1064120.3351635
