version 2
run v1-865-20171203-08:04:32-8763
attr configname v1
attr cwmax 1024
attr cwmin 32
attr datetime 20171203-08:04:32
attr experiment v1
attr inifile omnetpp.ini
attr iterationvars "$cwmin=32, $cwmax=1024, $slotlength=35, $txPower=100"
attr iterationvars2 "$cwmin=32, $cwmax=1024, $slotlength=35, $txPower=100, $repetition=0"
attr measurement "$cwmin=32, $cwmax=1024, $slotlength=35, $txPower=100"
attr network RSUExampleScenario2
attr processid 8763
attr repetition 0
attr replication #0
attr resultdir results
attr runnumber 865
attr seedset 865
attr slotlength 35
attr txPower 100
param **.coreDebug true
param **.debug true
param *.**.nic.mac1609_4.bitrate 6Mbps
param *.**.nic.mac1609_4.cwmax_ "${cwmax=1024, 2048, 4096}"
param *.**.nic.mac1609_4.cwmin_ "${cwmin=16, 32, 64}"
param *.**.nic.mac1609_4.slotlength_ "${slotlength=5..100 step 5}ms"
param *.**.nic.mac1609_4.txPower "${txPower=1.26, 2.51, 3.98, 10, 15.85, 25.12, 50.12, 100, 251.19, 501.19, 794.33, 1258.93, 1584.89}mW"
param *.**.nic.mac1609_4.useServiceChannel false
param *.**.nic.phy80211p.analogueModels "xmldoc(\"config.xml\")"
param *.**.nic.phy80211p.decider "xmldoc(\"config.xml\")"
param *.**.nic.phy80211p.sensitivity -89dBm
param *.**.nic.phy80211p.thermalNoise -110dBm
param *.**.nic.phy80211p.usePropagationDelay true
param *.**.nic.phy80211p.useThermalNoise true
param *.annotations.draw false
param *.connectionManager.alpha 2.0
param *.connectionManager.carrierFrequency "5.890e9 Hz"
param *.connectionManager.drawMaxIntfDist false
param *.connectionManager.maxInterfDist 2600m
param *.connectionManager.pMax 20mW
param *.connectionManager.sat -89dBm
param *.connectionManager.sendDirect true
param *.manager.autoShutdown true
param *.manager.host "\"localhost\""
param *.manager.launchConfig "xmldoc(\"osm.launchd.xml\")"
param *.manager.margin 25
param *.manager.moduleDisplayString "\"\""
param *.manager.moduleName "\"node\""
param *.manager.moduleType "\"org.car2x.veins.nodes.Car\""
param *.manager.port 9999
param *.manager.updateInterval 1s
param *.node[*].appl.beaconInterval "0.1 s"
param *.node[*].appl.beaconLengthBits "3960 bit"
param *.node[*].appl.beaconPriority 3
param *.node[*].appl.dataLengthBits "3960 bit"
param *.node[*].appl.dataOnSch false
param *.node[*].appl.dataPriority 2
param *.node[*].appl.debug false
param *.node[*].appl.headerLength "80 bit"
param *.node[*].appl.maxOffset "0.005 s"
param *.node[*].appl.sendBeacons true
param *.node[*].appl.sendData false
param *.node[*].applType "\"TraCIDemo11p\""
param *.node[*].mobilityType "\"TraCIMobility\""
param *.node[*].mobilityType.debug true
param *.node[*].veinsmobility.x 0
param *.node[*].veinsmobility.y 0
param *.node[*].veinsmobility.z 1.895
param *.node[*].veinsmobilityType "\"org.car2x.veins.modules.mobility.traci.TraCIMobility\""
param *.node[*].veinsmobilityType.debug true
param *.obstacles.debug false
param *.playgroundSizeX 2000m
param *.playgroundSizeY 2000m
param *.playgroundSizeZ 50m
param *.world.use2D false
param *.world.useTorus false

scalar . 	cwmax 	1024
scalar . 	cwmin 	32
scalar . 	slotlength 	35
scalar . 	txPower 	100
scalar RSUExampleScenario2.node[6].nic.mac1609_4 	TotalLostPackets 	0
scalar RSUExampleScenario2.node[6].nic.mac1609_4 	delayMedio 	0.000759450356
scalar RSUExampleScenario2.node[6].nic.mac1609_4 	throughputMedioBPS 	5393374.256364
scalar RSUExampleScenario2.node[5].nic.mac1609_4 	TotalLostPackets 	600
scalar RSUExampleScenario2.node[5].nic.mac1609_4 	delayMedio 	0.00603232763
scalar RSUExampleScenario2.node[5].nic.mac1609_4 	throughputMedioBPS 	679008.21229301
scalar RSUExampleScenario2.node[0].nic.mac1609_4 	TotalLostPackets 	300
scalar RSUExampleScenario2.node[0].nic.mac1609_4 	delayMedio 	0.005630873059
scalar RSUExampleScenario2.node[0].nic.mac1609_4 	throughputMedioBPS 	727418.28074206
scalar RSUExampleScenario2.node[14].nic.mac1609_4 	TotalLostPackets 	302
scalar RSUExampleScenario2.node[14].nic.mac1609_4 	delayMedio 	0.00674382558
scalar RSUExampleScenario2.node[14].nic.mac1609_4 	throughputMedioBPS 	607370.39408938
scalar RSUExampleScenario2.node[7].nic.mac1609_4 	TotalLostPackets 	566
scalar RSUExampleScenario2.node[7].nic.mac1609_4 	delayMedio 	0.006461237889
scalar RSUExampleScenario2.node[7].nic.mac1609_4 	throughputMedioBPS 	633934.25073277
scalar RSUExampleScenario2.node[2].nic.mac1609_4 	TotalLostPackets 	561
scalar RSUExampleScenario2.node[2].nic.mac1609_4 	delayMedio 	0.005973604005
scalar RSUExampleScenario2.node[2].nic.mac1609_4 	throughputMedioBPS 	685683.21510802
scalar RSUExampleScenario2.node[8].nic.mac1609_4 	TotalLostPackets 	569
scalar RSUExampleScenario2.node[8].nic.mac1609_4 	delayMedio 	0.006252115544
scalar RSUExampleScenario2.node[8].nic.mac1609_4 	throughputMedioBPS 	655138.24420894
scalar RSUExampleScenario2.node[3].nic.mac1609_4 	TotalLostPackets 	602
scalar RSUExampleScenario2.node[3].nic.mac1609_4 	delayMedio 	0.00529813074
scalar RSUExampleScenario2.node[3].nic.mac1609_4 	throughputMedioBPS 	773102.85482296
scalar RSUExampleScenario2.node[11].nic.mac1609_4 	TotalLostPackets 	456
scalar RSUExampleScenario2.node[11].nic.mac1609_4 	delayMedio 	0.005778697607
scalar RSUExampleScenario2.node[11].nic.mac1609_4 	throughputMedioBPS 	708810.23348356
scalar RSUExampleScenario2.node[17].nic.mac1609_4 	TotalLostPackets 	252
scalar RSUExampleScenario2.node[17].nic.mac1609_4 	delayMedio 	0.002840355698
scalar RSUExampleScenario2.node[17].nic.mac1609_4 	throughputMedioBPS 	1442072.9076915
scalar RSUExampleScenario2.node[27].nic.mac1609_4 	TotalLostPackets 	1
scalar RSUExampleScenario2.node[27].nic.mac1609_4 	delayMedio 	0.005676059364
scalar RSUExampleScenario2.node[27].nic.mac1609_4 	throughputMedioBPS 	721627.4068659
scalar RSUExampleScenario2.node[12].nic.mac1609_4 	TotalLostPackets 	486
scalar RSUExampleScenario2.node[12].nic.mac1609_4 	delayMedio 	0.005789302004
scalar RSUExampleScenario2.node[12].nic.mac1609_4 	throughputMedioBPS 	707511.88952478
scalar RSUExampleScenario2.node[18].nic.mac1609_4 	TotalLostPackets 	342
scalar RSUExampleScenario2.node[18].nic.mac1609_4 	delayMedio 	0.003511906089
scalar RSUExampleScenario2.node[18].nic.mac1609_4 	throughputMedioBPS 	1166318.2033035
scalar RSUExampleScenario2.node[22].nic.mac1609_4 	TotalLostPackets 	81
scalar RSUExampleScenario2.node[22].nic.mac1609_4 	delayMedio 	0.004243429174
scalar RSUExampleScenario2.node[22].nic.mac1609_4 	throughputMedioBPS 	965257.06736783
scalar RSUExampleScenario2.node[28].nic.mac1609_4 	TotalLostPackets 	1
scalar RSUExampleScenario2.node[28].nic.mac1609_4 	delayMedio 	0.006035213957
scalar RSUExampleScenario2.node[28].nic.mac1609_4 	throughputMedioBPS 	678683.47817947
scalar RSUExampleScenario2.node[33].nic.mac1609_4 	TotalLostPackets 	0
scalar RSUExampleScenario2.node[33].nic.mac1609_4 	delayMedio 	0.000767123919
scalar RSUExampleScenario2.node[33].nic.mac1609_4 	throughputMedioBPS 	5339424.1754062
scalar RSUExampleScenario2.node[1].nic.mac1609_4 	TotalLostPackets 	602
scalar RSUExampleScenario2.node[1].nic.mac1609_4 	delayMedio 	0.005268436602
scalar RSUExampleScenario2.node[1].nic.mac1609_4 	throughputMedioBPS 	777460.24278515
scalar RSUExampleScenario2.node[29].nic.mac1609_4 	TotalLostPackets 	2
scalar RSUExampleScenario2.node[29].nic.mac1609_4 	delayMedio 	0.005341770633
scalar RSUExampleScenario2.node[29].nic.mac1609_4 	throughputMedioBPS 	766786.94781833
scalar RSUExampleScenario2.node[34].nic.mac1609_4 	TotalLostPackets 	0
scalar RSUExampleScenario2.node[34].nic.mac1609_4 	delayMedio 	0.000768035492
scalar RSUExampleScenario2.node[34].nic.mac1609_4 	throughputMedioBPS 	5333086.8700838
scalar RSUExampleScenario2.node[9].nic.mac1609_4 	TotalLostPackets 	478
scalar RSUExampleScenario2.node[9].nic.mac1609_4 	delayMedio 	0.005555274966
scalar RSUExampleScenario2.node[9].nic.mac1609_4 	throughputMedioBPS 	737317.23900118
scalar RSUExampleScenario2.node[15].nic.mac1609_4 	TotalLostPackets 	479
scalar RSUExampleScenario2.node[15].nic.mac1609_4 	delayMedio 	0.006096447375
scalar RSUExampleScenario2.node[15].nic.mac1609_4 	throughputMedioBPS 	671866.70339847
scalar RSUExampleScenario2.node[20].nic.mac1609_4 	TotalLostPackets 	204
scalar RSUExampleScenario2.node[20].nic.mac1609_4 	delayMedio 	0.003191062536
scalar RSUExampleScenario2.node[20].nic.mac1609_4 	throughputMedioBPS 	1283584.9984004
scalar RSUExampleScenario2.node[23].nic.mac1609_4 	TotalLostPackets 	41
scalar RSUExampleScenario2.node[23].nic.mac1609_4 	delayMedio 	0.004238552892
scalar RSUExampleScenario2.node[23].nic.mac1609_4 	throughputMedioBPS 	966367.5561721
scalar RSUExampleScenario2.node[25].nic.mac1609_4 	TotalLostPackets 	2
scalar RSUExampleScenario2.node[25].nic.mac1609_4 	delayMedio 	0.00491626748
scalar RSUExampleScenario2.node[25].nic.mac1609_4 	throughputMedioBPS 	833152.38980636
scalar RSUExampleScenario2.node[4].nic.mac1609_4 	TotalLostPackets 	602
scalar RSUExampleScenario2.node[4].nic.mac1609_4 	delayMedio 	0.005333378527
scalar RSUExampleScenario2.node[4].nic.mac1609_4 	throughputMedioBPS 	767993.49220582
scalar RSUExampleScenario2.node[19].nic.mac1609_4 	TotalLostPackets 	220
scalar RSUExampleScenario2.node[19].nic.mac1609_4 	delayMedio 	0.003767091322
scalar RSUExampleScenario2.node[19].nic.mac1609_4 	throughputMedioBPS 	1087311.044466
scalar RSUExampleScenario2.node[21].nic.mac1609_4 	TotalLostPackets 	93
scalar RSUExampleScenario2.node[21].nic.mac1609_4 	delayMedio 	0.003934712894
scalar RSUExampleScenario2.node[21].nic.mac1609_4 	throughputMedioBPS 	1040990.8195457
scalar RSUExampleScenario2.node[24].nic.mac1609_4 	TotalLostPackets 	1
scalar RSUExampleScenario2.node[24].nic.mac1609_4 	delayMedio 	0.003566646349
scalar RSUExampleScenario2.node[24].nic.mac1609_4 	throughputMedioBPS 	1148417.7570144
scalar RSUExampleScenario2.node[26].nic.mac1609_4 	TotalLostPackets 	1
scalar RSUExampleScenario2.node[26].nic.mac1609_4 	delayMedio 	0.005231269587
scalar RSUExampleScenario2.node[26].nic.mac1609_4 	throughputMedioBPS 	782983.92619357
scalar RSUExampleScenario2.node[30].nic.mac1609_4 	TotalLostPackets 	2
scalar RSUExampleScenario2.node[30].nic.mac1609_4 	delayMedio 	0.005505575677
scalar RSUExampleScenario2.node[30].nic.mac1609_4 	throughputMedioBPS 	743973.06302328
scalar RSUExampleScenario2.node[31].nic.mac1609_4 	TotalLostPackets 	2
scalar RSUExampleScenario2.node[31].nic.mac1609_4 	delayMedio 	0.006428555467
scalar RSUExampleScenario2.node[31].nic.mac1609_4 	throughputMedioBPS 	637157.13753405
scalar RSUExampleScenario2.node[32].nic.mac1609_4 	TotalLostPackets 	0
scalar RSUExampleScenario2.node[32].nic.mac1609_4 	delayMedio 	0.000775374663
scalar RSUExampleScenario2.node[32].nic.mac1609_4 	throughputMedioBPS 	5282607.4843872
scalar RSUExampleScenario2.node[35].nic.mac1609_4 	TotalLostPackets 	0
scalar RSUExampleScenario2.node[35].nic.mac1609_4 	delayMedio 	0.000765547274
scalar RSUExampleScenario2.node[35].nic.mac1609_4 	throughputMedioBPS 	5350420.7207281
scalar RSUExampleScenario2.node[10].nic.mac1609_4 	TotalLostPackets 	480
scalar RSUExampleScenario2.node[10].nic.mac1609_4 	delayMedio 	0.005672346702
scalar RSUExampleScenario2.node[10].nic.mac1609_4 	throughputMedioBPS 	722099.72609973
scalar RSUExampleScenario2.node[13].nic.mac1609_4 	TotalLostPackets 	461
scalar RSUExampleScenario2.node[13].nic.mac1609_4 	delayMedio 	0.005943691719
scalar RSUExampleScenario2.node[13].nic.mac1609_4 	throughputMedioBPS 	689133.99173171
scalar RSUExampleScenario2.node[16].nic.mac1609_4 	TotalLostPackets 	346
scalar RSUExampleScenario2.node[16].nic.mac1609_4 	delayMedio 	0.003792126871
scalar RSUExampleScenario2.node[16].nic.mac1609_4 	throughputMedioBPS 	1080132.637826
