version 2
run v1-1099-20171204-02:00:46-8763
attr configname v1
attr cwmax 2048
attr cwmin 32
attr datetime 20171204-02:00:46
attr experiment v1
attr inifile omnetpp.ini
attr iterationvars "$cwmin=32, $cwmax=2048, $slotlength=25, $txPower=100"
attr iterationvars2 "$cwmin=32, $cwmax=2048, $slotlength=25, $txPower=100, $repetition=0"
attr measurement "$cwmin=32, $cwmax=2048, $slotlength=25, $txPower=100"
attr network RSUExampleScenario2
attr processid 8763
attr repetition 0
attr replication #0
attr resultdir results
attr runnumber 1099
attr seedset 1099
attr slotlength 25
attr txPower 100
param **.coreDebug true
param **.debug true
param *.**.nic.mac1609_4.bitrate 6Mbps
param *.**.nic.mac1609_4.cwmax_ "${cwmax=1024, 2048, 4096}"
param *.**.nic.mac1609_4.cwmin_ "${cwmin=16, 32, 64}"
param *.**.nic.mac1609_4.slotlength_ "${slotlength=5..100 step 5}ms"
param *.**.nic.mac1609_4.txPower "${txPower=1.26, 2.51, 3.98, 10, 15.85, 25.12, 50.12, 100, 251.19, 501.19, 794.33, 1258.93, 1584.89}mW"
param *.**.nic.mac1609_4.useServiceChannel false
param *.**.nic.phy80211p.analogueModels "xmldoc(\"config.xml\")"
param *.**.nic.phy80211p.decider "xmldoc(\"config.xml\")"
param *.**.nic.phy80211p.sensitivity -89dBm
param *.**.nic.phy80211p.thermalNoise -110dBm
param *.**.nic.phy80211p.usePropagationDelay true
param *.**.nic.phy80211p.useThermalNoise true
param *.annotations.draw false
param *.connectionManager.alpha 2.0
param *.connectionManager.carrierFrequency "5.890e9 Hz"
param *.connectionManager.drawMaxIntfDist false
param *.connectionManager.maxInterfDist 2600m
param *.connectionManager.pMax 20mW
param *.connectionManager.sat -89dBm
param *.connectionManager.sendDirect true
param *.manager.autoShutdown true
param *.manager.host "\"localhost\""
param *.manager.launchConfig "xmldoc(\"osm.launchd.xml\")"
param *.manager.margin 25
param *.manager.moduleDisplayString "\"\""
param *.manager.moduleName "\"node\""
param *.manager.moduleType "\"org.car2x.veins.nodes.Car\""
param *.manager.port 9999
param *.manager.updateInterval 1s
param *.node[*].appl.beaconInterval "0.1 s"
param *.node[*].appl.beaconLengthBits "3960 bit"
param *.node[*].appl.beaconPriority 3
param *.node[*].appl.dataLengthBits "3960 bit"
param *.node[*].appl.dataOnSch false
param *.node[*].appl.dataPriority 2
param *.node[*].appl.debug false
param *.node[*].appl.headerLength "80 bit"
param *.node[*].appl.maxOffset "0.005 s"
param *.node[*].appl.sendBeacons true
param *.node[*].appl.sendData false
param *.node[*].applType "\"TraCIDemo11p\""
param *.node[*].mobilityType "\"TraCIMobility\""
param *.node[*].mobilityType.debug true
param *.node[*].veinsmobility.x 0
param *.node[*].veinsmobility.y 0
param *.node[*].veinsmobility.z 1.895
param *.node[*].veinsmobilityType "\"org.car2x.veins.modules.mobility.traci.TraCIMobility\""
param *.node[*].veinsmobilityType.debug true
param *.obstacles.debug false
param *.playgroundSizeX 2000m
param *.playgroundSizeY 2000m
param *.playgroundSizeZ 50m
param *.world.use2D false
param *.world.useTorus false

scalar . 	cwmax 	2048
scalar . 	cwmin 	32
scalar . 	slotlength 	25
scalar . 	txPower 	100
scalar RSUExampleScenario2.node[6].nic.mac1609_4 	TotalLostPackets 	0
scalar RSUExampleScenario2.node[6].nic.mac1609_4 	delayMedio 	0.000723259069
scalar RSUExampleScenario2.node[6].nic.mac1609_4 	throughputMedioBPS 	5663254.2516697
scalar RSUExampleScenario2.node[5].nic.mac1609_4 	TotalLostPackets 	0
scalar RSUExampleScenario2.node[5].nic.mac1609_4 	delayMedio 	0.005604239328
scalar RSUExampleScenario2.node[5].nic.mac1609_4 	throughputMedioBPS 	730875.28212358
scalar RSUExampleScenario2.node[0].nic.mac1609_4 	TotalLostPackets 	0
scalar RSUExampleScenario2.node[0].nic.mac1609_4 	delayMedio 	0.005470005596
scalar RSUExampleScenario2.node[0].nic.mac1609_4 	throughputMedioBPS 	748810.93407066
scalar RSUExampleScenario2.node[14].nic.mac1609_4 	TotalLostPackets 	2
scalar RSUExampleScenario2.node[14].nic.mac1609_4 	delayMedio 	0.006367356415
scalar RSUExampleScenario2.node[14].nic.mac1609_4 	throughputMedioBPS 	643281.09390699
scalar RSUExampleScenario2.node[7].nic.mac1609_4 	TotalLostPackets 	2
scalar RSUExampleScenario2.node[7].nic.mac1609_4 	delayMedio 	0.006058236482
scalar RSUExampleScenario2.node[7].nic.mac1609_4 	throughputMedioBPS 	676104.34364388
scalar RSUExampleScenario2.node[2].nic.mac1609_4 	TotalLostPackets 	1
scalar RSUExampleScenario2.node[2].nic.mac1609_4 	delayMedio 	0.005620359288
scalar RSUExampleScenario2.node[2].nic.mac1609_4 	throughputMedioBPS 	728779.03169969
scalar RSUExampleScenario2.node[8].nic.mac1609_4 	TotalLostPackets 	1
scalar RSUExampleScenario2.node[8].nic.mac1609_4 	delayMedio 	0.00585979323
scalar RSUExampleScenario2.node[8].nic.mac1609_4 	throughputMedioBPS 	699000.77349302
scalar RSUExampleScenario2.node[3].nic.mac1609_4 	TotalLostPackets 	21
scalar RSUExampleScenario2.node[3].nic.mac1609_4 	delayMedio 	0.004995319553
scalar RSUExampleScenario2.node[3].nic.mac1609_4 	throughputMedioBPS 	819967.56300576
scalar RSUExampleScenario2.node[11].nic.mac1609_4 	TotalLostPackets 	21
scalar RSUExampleScenario2.node[11].nic.mac1609_4 	delayMedio 	0.005476480268
scalar RSUExampleScenario2.node[11].nic.mac1609_4 	throughputMedioBPS 	747925.6383229
scalar RSUExampleScenario2.node[17].nic.mac1609_4 	TotalLostPackets 	22
scalar RSUExampleScenario2.node[17].nic.mac1609_4 	delayMedio 	0.002603478621
scalar RSUExampleScenario2.node[17].nic.mac1609_4 	throughputMedioBPS 	1573279.675511
scalar RSUExampleScenario2.node[27].nic.mac1609_4 	TotalLostPackets 	12
scalar RSUExampleScenario2.node[27].nic.mac1609_4 	delayMedio 	0.005342317143
scalar RSUExampleScenario2.node[27].nic.mac1609_4 	throughputMedioBPS 	766708.50690127
scalar RSUExampleScenario2.node[12].nic.mac1609_4 	TotalLostPackets 	21
scalar RSUExampleScenario2.node[12].nic.mac1609_4 	delayMedio 	0.005475487119
scalar RSUExampleScenario2.node[12].nic.mac1609_4 	throughputMedioBPS 	748061.29780377
scalar RSUExampleScenario2.node[18].nic.mac1609_4 	TotalLostPackets 	22
scalar RSUExampleScenario2.node[18].nic.mac1609_4 	delayMedio 	0.0032562134
scalar RSUExampleScenario2.node[18].nic.mac1609_4 	throughputMedioBPS 	1257902.8143085
scalar RSUExampleScenario2.node[22].nic.mac1609_4 	TotalLostPackets 	21
scalar RSUExampleScenario2.node[22].nic.mac1609_4 	delayMedio 	0.003980073809
scalar RSUExampleScenario2.node[22].nic.mac1609_4 	throughputMedioBPS 	1029126.6434918
scalar RSUExampleScenario2.node[28].nic.mac1609_4 	TotalLostPackets 	21
scalar RSUExampleScenario2.node[28].nic.mac1609_4 	delayMedio 	0.005680963273
scalar RSUExampleScenario2.node[28].nic.mac1609_4 	throughputMedioBPS 	721004.48524722
scalar RSUExampleScenario2.node[33].nic.mac1609_4 	TotalLostPackets 	0
scalar RSUExampleScenario2.node[33].nic.mac1609_4 	delayMedio 	0.000727011149
scalar RSUExampleScenario2.node[33].nic.mac1609_4 	throughputMedioBPS 	5634026.3926884
scalar RSUExampleScenario2.node[1].nic.mac1609_4 	TotalLostPackets 	21
scalar RSUExampleScenario2.node[1].nic.mac1609_4 	delayMedio 	0.004969203756
scalar RSUExampleScenario2.node[1].nic.mac1609_4 	throughputMedioBPS 	824276.92666426
scalar RSUExampleScenario2.node[29].nic.mac1609_4 	TotalLostPackets 	6
scalar RSUExampleScenario2.node[29].nic.mac1609_4 	delayMedio 	0.004948858178
scalar RSUExampleScenario2.node[29].nic.mac1609_4 	throughputMedioBPS 	827665.6659521
scalar RSUExampleScenario2.node[34].nic.mac1609_4 	TotalLostPackets 	20
scalar RSUExampleScenario2.node[34].nic.mac1609_4 	delayMedio 	0.000726132019
scalar RSUExampleScenario2.node[34].nic.mac1609_4 	throughputMedioBPS 	5640847.5248529
scalar RSUExampleScenario2.node[9].nic.mac1609_4 	TotalLostPackets 	22
scalar RSUExampleScenario2.node[9].nic.mac1609_4 	delayMedio 	0.005259172317
scalar RSUExampleScenario2.node[9].nic.mac1609_4 	throughputMedioBPS 	778829.77641649
scalar RSUExampleScenario2.node[15].nic.mac1609_4 	TotalLostPackets 	21
scalar RSUExampleScenario2.node[15].nic.mac1609_4 	delayMedio 	0.005739534294
scalar RSUExampleScenario2.node[15].nic.mac1609_4 	throughputMedioBPS 	713646.75074073
scalar RSUExampleScenario2.node[20].nic.mac1609_4 	TotalLostPackets 	2
scalar RSUExampleScenario2.node[20].nic.mac1609_4 	delayMedio 	0.002917240807
scalar RSUExampleScenario2.node[20].nic.mac1609_4 	throughputMedioBPS 	1404066.4694421
scalar RSUExampleScenario2.node[23].nic.mac1609_4 	TotalLostPackets 	21
scalar RSUExampleScenario2.node[23].nic.mac1609_4 	delayMedio 	0.003991733367
scalar RSUExampleScenario2.node[23].nic.mac1609_4 	throughputMedioBPS 	1026120.6407408
scalar RSUExampleScenario2.node[25].nic.mac1609_4 	TotalLostPackets 	21
scalar RSUExampleScenario2.node[25].nic.mac1609_4 	delayMedio 	0.00488427905
scalar RSUExampleScenario2.node[25].nic.mac1609_4 	throughputMedioBPS 	838608.92422838
scalar RSUExampleScenario2.node[4].nic.mac1609_4 	TotalLostPackets 	21
scalar RSUExampleScenario2.node[4].nic.mac1609_4 	delayMedio 	0.005032958528
scalar RSUExampleScenario2.node[4].nic.mac1609_4 	throughputMedioBPS 	813835.43637217
scalar RSUExampleScenario2.node[19].nic.mac1609_4 	TotalLostPackets 	22
scalar RSUExampleScenario2.node[19].nic.mac1609_4 	delayMedio 	0.003496429947
scalar RSUExampleScenario2.node[19].nic.mac1609_4 	throughputMedioBPS 	1171480.6421634
scalar RSUExampleScenario2.node[21].nic.mac1609_4 	TotalLostPackets 	22
scalar RSUExampleScenario2.node[21].nic.mac1609_4 	delayMedio 	0.003684175369
scalar RSUExampleScenario2.node[21].nic.mac1609_4 	throughputMedioBPS 	1111782.0379439
scalar RSUExampleScenario2.node[24].nic.mac1609_4 	TotalLostPackets 	2
scalar RSUExampleScenario2.node[24].nic.mac1609_4 	delayMedio 	0.003271377872
scalar RSUExampleScenario2.node[24].nic.mac1609_4 	throughputMedioBPS 	1252071.8057807
scalar RSUExampleScenario2.node[26].nic.mac1609_4 	TotalLostPackets 	21
scalar RSUExampleScenario2.node[26].nic.mac1609_4 	delayMedio 	0.004898874223
scalar RSUExampleScenario2.node[26].nic.mac1609_4 	throughputMedioBPS 	836110.46406015
scalar RSUExampleScenario2.node[30].nic.mac1609_4 	TotalLostPackets 	21
scalar RSUExampleScenario2.node[30].nic.mac1609_4 	delayMedio 	0.00545374975
scalar RSUExampleScenario2.node[30].nic.mac1609_4 	throughputMedioBPS 	751042.89479036
scalar RSUExampleScenario2.node[31].nic.mac1609_4 	TotalLostPackets 	6
scalar RSUExampleScenario2.node[31].nic.mac1609_4 	delayMedio 	0.005927561107
scalar RSUExampleScenario2.node[31].nic.mac1609_4 	throughputMedioBPS 	691009.32508436
scalar RSUExampleScenario2.node[32].nic.mac1609_4 	TotalLostPackets 	20
scalar RSUExampleScenario2.node[32].nic.mac1609_4 	delayMedio 	0.000738809553
scalar RSUExampleScenario2.node[32].nic.mac1609_4 	throughputMedioBPS 	5544053.9207718
scalar RSUExampleScenario2.node[35].nic.mac1609_4 	TotalLostPackets 	0
scalar RSUExampleScenario2.node[35].nic.mac1609_4 	delayMedio 	0.000726416941
scalar RSUExampleScenario2.node[35].nic.mac1609_4 	throughputMedioBPS 	5638635.0160832
scalar RSUExampleScenario2.node[10].nic.mac1609_4 	TotalLostPackets 	22
scalar RSUExampleScenario2.node[10].nic.mac1609_4 	delayMedio 	0.005361052846
scalar RSUExampleScenario2.node[10].nic.mac1609_4 	throughputMedioBPS 	764029.02893098
scalar RSUExampleScenario2.node[13].nic.mac1609_4 	TotalLostPackets 	21
scalar RSUExampleScenario2.node[13].nic.mac1609_4 	delayMedio 	0.005587689337
scalar RSUExampleScenario2.node[13].nic.mac1609_4 	throughputMedioBPS 	733040.0372491
scalar RSUExampleScenario2.node[16].nic.mac1609_4 	TotalLostPackets 	22
scalar RSUExampleScenario2.node[16].nic.mac1609_4 	delayMedio 	0.003566165864
scalar RSUExampleScenario2.node[16].nic.mac1609_4 	throughputMedioBPS 	1148572.4881101
