version 2
run v1-1328-20171204-19:35:27-8763
attr configname v1
attr cwmax 4096
attr cwmin 32
attr datetime 20171204-19:35:27
attr experiment v1
attr inifile omnetpp.ini
attr iterationvars "$cwmin=32, $cwmax=4096, $slotlength=15, $txPower=3.98"
attr iterationvars2 "$cwmin=32, $cwmax=4096, $slotlength=15, $txPower=3.98, $repetition=0"
attr measurement "$cwmin=32, $cwmax=4096, $slotlength=15, $txPower=3.98"
attr network RSUExampleScenario2
attr processid 8763
attr repetition 0
attr replication #0
attr resultdir results
attr runnumber 1328
attr seedset 1328
attr slotlength 15
attr txPower 3.98
param **.coreDebug true
param **.debug true
param *.**.nic.mac1609_4.bitrate 6Mbps
param *.**.nic.mac1609_4.cwmax_ "${cwmax=1024, 2048, 4096}"
param *.**.nic.mac1609_4.cwmin_ "${cwmin=16, 32, 64}"
param *.**.nic.mac1609_4.slotlength_ "${slotlength=5..100 step 5}ms"
param *.**.nic.mac1609_4.txPower "${txPower=1.26, 2.51, 3.98, 10, 15.85, 25.12, 50.12, 100, 251.19, 501.19, 794.33, 1258.93, 1584.89}mW"
param *.**.nic.mac1609_4.useServiceChannel false
param *.**.nic.phy80211p.analogueModels "xmldoc(\"config.xml\")"
param *.**.nic.phy80211p.decider "xmldoc(\"config.xml\")"
param *.**.nic.phy80211p.sensitivity -89dBm
param *.**.nic.phy80211p.thermalNoise -110dBm
param *.**.nic.phy80211p.usePropagationDelay true
param *.**.nic.phy80211p.useThermalNoise true
param *.annotations.draw false
param *.connectionManager.alpha 2.0
param *.connectionManager.carrierFrequency "5.890e9 Hz"
param *.connectionManager.drawMaxIntfDist false
param *.connectionManager.maxInterfDist 2600m
param *.connectionManager.pMax 20mW
param *.connectionManager.sat -89dBm
param *.connectionManager.sendDirect true
param *.manager.autoShutdown true
param *.manager.host "\"localhost\""
param *.manager.launchConfig "xmldoc(\"osm.launchd.xml\")"
param *.manager.margin 25
param *.manager.moduleDisplayString "\"\""
param *.manager.moduleName "\"node\""
param *.manager.moduleType "\"org.car2x.veins.nodes.Car\""
param *.manager.port 9999
param *.manager.updateInterval 1s
param *.node[*].appl.beaconInterval "0.1 s"
param *.node[*].appl.beaconLengthBits "3960 bit"
param *.node[*].appl.beaconPriority 3
param *.node[*].appl.dataLengthBits "3960 bit"
param *.node[*].appl.dataOnSch false
param *.node[*].appl.dataPriority 2
param *.node[*].appl.debug false
param *.node[*].appl.headerLength "80 bit"
param *.node[*].appl.maxOffset "0.005 s"
param *.node[*].appl.sendBeacons true
param *.node[*].appl.sendData false
param *.node[*].applType "\"TraCIDemo11p\""
param *.node[*].mobilityType "\"TraCIMobility\""
param *.node[*].mobilityType.debug true
param *.node[*].veinsmobility.x 0
param *.node[*].veinsmobility.y 0
param *.node[*].veinsmobility.z 1.895
param *.node[*].veinsmobilityType "\"org.car2x.veins.modules.mobility.traci.TraCIMobility\""
param *.node[*].veinsmobilityType.debug true
param *.obstacles.debug false
param *.playgroundSizeX 2000m
param *.playgroundSizeY 2000m
param *.playgroundSizeZ 50m
param *.world.use2D false
param *.world.useTorus false

scalar . 	cwmax 	4096
scalar . 	cwmin 	32
scalar . 	slotlength 	15
scalar . 	txPower 	3.98
scalar RSUExampleScenario2.node[5].nic.mac1609_4 	TotalLostPackets 	10
scalar RSUExampleScenario2.node[5].nic.mac1609_4 	delayMedio 	0.004385815824
scalar RSUExampleScenario2.node[5].nic.mac1609_4 	throughputMedioBPS 	933919.74597495
scalar RSUExampleScenario2.node[0].nic.mac1609_4 	TotalLostPackets 	50
scalar RSUExampleScenario2.node[0].nic.mac1609_4 	delayMedio 	0.006450904076
scalar RSUExampleScenario2.node[0].nic.mac1609_4 	throughputMedioBPS 	634949.76082932
scalar RSUExampleScenario2.node[14].nic.mac1609_4 	TotalLostPackets 	120
scalar RSUExampleScenario2.node[14].nic.mac1609_4 	delayMedio 	0.009793866624
scalar RSUExampleScenario2.node[14].nic.mac1609_4 	throughputMedioBPS 	418220.92922358
scalar RSUExampleScenario2.node[2].nic.mac1609_4 	TotalLostPackets 	12
scalar RSUExampleScenario2.node[2].nic.mac1609_4 	delayMedio 	0.001706118459
scalar RSUExampleScenario2.node[2].nic.mac1609_4 	throughputMedioBPS 	2400771.1650948
scalar RSUExampleScenario2.node[7].nic.mac1609_4 	TotalLostPackets 	0
scalar RSUExampleScenario2.node[7].nic.mac1609_4 	delayMedio 	0.007826830205
scalar RSUExampleScenario2.node[7].nic.mac1609_4 	throughputMedioBPS 	523328.07698182
scalar RSUExampleScenario2.node[8].nic.mac1609_4 	TotalLostPackets 	0
scalar RSUExampleScenario2.node[8].nic.mac1609_4 	delayMedio 	0.000721526236
scalar RSUExampleScenario2.node[8].nic.mac1609_4 	throughputMedioBPS 	5676855.2499907
scalar RSUExampleScenario2.node[3].nic.mac1609_4 	TotalLostPackets 	1
scalar RSUExampleScenario2.node[3].nic.mac1609_4 	delayMedio 	0.002119465366
scalar RSUExampleScenario2.node[3].nic.mac1609_4 	throughputMedioBPS 	1932562.8363392
scalar RSUExampleScenario2.node[11].nic.mac1609_4 	TotalLostPackets 	2
scalar RSUExampleScenario2.node[11].nic.mac1609_4 	delayMedio 	0.003997870287
scalar RSUExampleScenario2.node[11].nic.mac1609_4 	throughputMedioBPS 	1024545.496838
scalar RSUExampleScenario2.node[17].nic.mac1609_4 	TotalLostPackets 	99
scalar RSUExampleScenario2.node[17].nic.mac1609_4 	delayMedio 	0.007791036788
scalar RSUExampleScenario2.node[17].nic.mac1609_4 	throughputMedioBPS 	525732.3397961
scalar RSUExampleScenario2.node[27].nic.mac1609_4 	TotalLostPackets 	0
scalar RSUExampleScenario2.node[27].nic.mac1609_4 	delayMedio 	0.000721542231
scalar RSUExampleScenario2.node[27].nic.mac1609_4 	throughputMedioBPS 	5676729.4071088
scalar RSUExampleScenario2.node[12].nic.mac1609_4 	TotalLostPackets 	29
scalar RSUExampleScenario2.node[12].nic.mac1609_4 	delayMedio 	0.003222883768
scalar RSUExampleScenario2.node[12].nic.mac1609_4 	throughputMedioBPS 	1270911.4864288
scalar RSUExampleScenario2.node[18].nic.mac1609_4 	TotalLostPackets 	0
scalar RSUExampleScenario2.node[18].nic.mac1609_4 	delayMedio 	0.009180727737
scalar RSUExampleScenario2.node[18].nic.mac1609_4 	throughputMedioBPS 	446151.99550433
scalar RSUExampleScenario2.node[22].nic.mac1609_4 	TotalLostPackets 	22
scalar RSUExampleScenario2.node[22].nic.mac1609_4 	delayMedio 	0.000721364777
scalar RSUExampleScenario2.node[22].nic.mac1609_4 	throughputMedioBPS 	5678125.8646169
scalar RSUExampleScenario2.node[28].nic.mac1609_4 	TotalLostPackets 	1
scalar RSUExampleScenario2.node[28].nic.mac1609_4 	delayMedio 	0.000721370008
scalar RSUExampleScenario2.node[28].nic.mac1609_4 	throughputMedioBPS 	5678084.6892369
scalar RSUExampleScenario2.node[1].nic.mac1609_4 	TotalLostPackets 	1
scalar RSUExampleScenario2.node[1].nic.mac1609_4 	delayMedio 	0.002790132283
scalar RSUExampleScenario2.node[1].nic.mac1609_4 	throughputMedioBPS 	1468030.7542644
scalar RSUExampleScenario2.node[29].nic.mac1609_4 	TotalLostPackets 	0
scalar RSUExampleScenario2.node[29].nic.mac1609_4 	delayMedio 	0.000721305587
scalar RSUExampleScenario2.node[29].nic.mac1609_4 	throughputMedioBPS 	5678591.8084993
scalar RSUExampleScenario2.node[34].nic.mac1609_4 	TotalLostPackets 	25
scalar RSUExampleScenario2.node[34].nic.mac1609_4 	delayMedio 	0.000721294642
scalar RSUExampleScenario2.node[34].nic.mac1609_4 	throughputMedioBPS 	5678677.9801229
scalar RSUExampleScenario2.node[9].nic.mac1609_4 	TotalLostPackets 	226
scalar RSUExampleScenario2.node[9].nic.mac1609_4 	delayMedio 	0.008337892565
scalar RSUExampleScenario2.node[9].nic.mac1609_4 	throughputMedioBPS 	491251.23260358
scalar RSUExampleScenario2.node[15].nic.mac1609_4 	TotalLostPackets 	131
scalar RSUExampleScenario2.node[15].nic.mac1609_4 	delayMedio 	0.010291568129
scalar RSUExampleScenario2.node[15].nic.mac1609_4 	throughputMedioBPS 	397995.71345801
scalar RSUExampleScenario2.node[20].nic.mac1609_4 	TotalLostPackets 	50
scalar RSUExampleScenario2.node[20].nic.mac1609_4 	delayMedio 	0.008790857782
scalar RSUExampleScenario2.node[20].nic.mac1609_4 	throughputMedioBPS 	465938.60367656
scalar RSUExampleScenario2.node[23].nic.mac1609_4 	TotalLostPackets 	60
scalar RSUExampleScenario2.node[23].nic.mac1609_4 	delayMedio 	0.000721424718
scalar RSUExampleScenario2.node[23].nic.mac1609_4 	throughputMedioBPS 	5677654.0879353
scalar RSUExampleScenario2.node[25].nic.mac1609_4 	TotalLostPackets 	50
scalar RSUExampleScenario2.node[25].nic.mac1609_4 	delayMedio 	0.00686018402
scalar RSUExampleScenario2.node[25].nic.mac1609_4 	throughputMedioBPS 	597068.53170248
scalar RSUExampleScenario2.node[4].nic.mac1609_4 	TotalLostPackets 	21
scalar RSUExampleScenario2.node[4].nic.mac1609_4 	delayMedio 	0.002825656581
scalar RSUExampleScenario2.node[4].nic.mac1609_4 	throughputMedioBPS 	1449574.5972438
scalar RSUExampleScenario2.node[19].nic.mac1609_4 	TotalLostPackets 	91
scalar RSUExampleScenario2.node[19].nic.mac1609_4 	delayMedio 	0.010501488881
scalar RSUExampleScenario2.node[19].nic.mac1609_4 	throughputMedioBPS 	390039.93113753
scalar RSUExampleScenario2.node[21].nic.mac1609_4 	TotalLostPackets 	516
scalar RSUExampleScenario2.node[21].nic.mac1609_4 	delayMedio 	0.010880034885
scalar RSUExampleScenario2.node[21].nic.mac1609_4 	throughputMedioBPS 	376469.38114294
scalar RSUExampleScenario2.node[24].nic.mac1609_4 	TotalLostPackets 	0
scalar RSUExampleScenario2.node[24].nic.mac1609_4 	delayMedio 	0.005804213886
scalar RSUExampleScenario2.node[24].nic.mac1609_4 	throughputMedioBPS 	705694.18706915
scalar RSUExampleScenario2.node[26].nic.mac1609_4 	TotalLostPackets 	9
scalar RSUExampleScenario2.node[26].nic.mac1609_4 	delayMedio 	0.000721434091
scalar RSUExampleScenario2.node[26].nic.mac1609_4 	throughputMedioBPS 	5677580.3222118
scalar RSUExampleScenario2.node[30].nic.mac1609_4 	TotalLostPackets 	40
scalar RSUExampleScenario2.node[30].nic.mac1609_4 	delayMedio 	0.004428372544
scalar RSUExampleScenario2.node[30].nic.mac1609_4 	throughputMedioBPS 	924944.76450275
scalar RSUExampleScenario2.node[31].nic.mac1609_4 	TotalLostPackets 	0
scalar RSUExampleScenario2.node[31].nic.mac1609_4 	delayMedio 	0.000721303547
scalar RSUExampleScenario2.node[31].nic.mac1609_4 	throughputMedioBPS 	5678607.8685658
scalar RSUExampleScenario2.node[35].nic.mac1609_4 	TotalLostPackets 	0
scalar RSUExampleScenario2.node[35].nic.mac1609_4 	delayMedio 	0.000721365726
scalar RSUExampleScenario2.node[35].nic.mac1609_4 	throughputMedioBPS 	5678118.4007355
scalar RSUExampleScenario2.node[10].nic.mac1609_4 	TotalLostPackets 	132
scalar RSUExampleScenario2.node[10].nic.mac1609_4 	delayMedio 	0.006654292483
scalar RSUExampleScenario2.node[10].nic.mac1609_4 	throughputMedioBPS 	615542.52545219
scalar RSUExampleScenario2.node[13].nic.mac1609_4 	TotalLostPackets 	3
scalar RSUExampleScenario2.node[13].nic.mac1609_4 	delayMedio 	0.003348777837
scalar RSUExampleScenario2.node[13].nic.mac1609_4 	throughputMedioBPS 	1223132.7963292
scalar RSUExampleScenario2.node[16].nic.mac1609_4 	TotalLostPackets 	95
scalar RSUExampleScenario2.node[16].nic.mac1609_4 	delayMedio 	0.006086027592
scalar RSUExampleScenario2.node[16].nic.mac1609_4 	throughputMedioBPS 	673016.99473367
