version 2
run v1-1214-20171204-10:50:04-8763
attr configname v1
attr cwmax 2048
attr cwmin 32
attr datetime 20171204-10:50:04
attr experiment v1
attr inifile omnetpp.ini
attr iterationvars "$cwmin=32, $cwmax=2048, $slotlength=70, $txPower=25.12"
attr iterationvars2 "$cwmin=32, $cwmax=2048, $slotlength=70, $txPower=25.12, $repetition=0"
attr measurement "$cwmin=32, $cwmax=2048, $slotlength=70, $txPower=25.12"
attr network RSUExampleScenario2
attr processid 8763
attr repetition 0
attr replication #0
attr resultdir results
attr runnumber 1214
attr seedset 1214
attr slotlength 70
attr txPower 25.12
param **.coreDebug true
param **.debug true
param *.**.nic.mac1609_4.bitrate 6Mbps
param *.**.nic.mac1609_4.cwmax_ "${cwmax=1024, 2048, 4096}"
param *.**.nic.mac1609_4.cwmin_ "${cwmin=16, 32, 64}"
param *.**.nic.mac1609_4.slotlength_ "${slotlength=5..100 step 5}ms"
param *.**.nic.mac1609_4.txPower "${txPower=1.26, 2.51, 3.98, 10, 15.85, 25.12, 50.12, 100, 251.19, 501.19, 794.33, 1258.93, 1584.89}mW"
param *.**.nic.mac1609_4.useServiceChannel false
param *.**.nic.phy80211p.analogueModels "xmldoc(\"config.xml\")"
param *.**.nic.phy80211p.decider "xmldoc(\"config.xml\")"
param *.**.nic.phy80211p.sensitivity -89dBm
param *.**.nic.phy80211p.thermalNoise -110dBm
param *.**.nic.phy80211p.usePropagationDelay true
param *.**.nic.phy80211p.useThermalNoise true
param *.annotations.draw false
param *.connectionManager.alpha 2.0
param *.connectionManager.carrierFrequency "5.890e9 Hz"
param *.connectionManager.drawMaxIntfDist false
param *.connectionManager.maxInterfDist 2600m
param *.connectionManager.pMax 20mW
param *.connectionManager.sat -89dBm
param *.connectionManager.sendDirect true
param *.manager.autoShutdown true
param *.manager.host "\"localhost\""
param *.manager.launchConfig "xmldoc(\"osm.launchd.xml\")"
param *.manager.margin 25
param *.manager.moduleDisplayString "\"\""
param *.manager.moduleName "\"node\""
param *.manager.moduleType "\"org.car2x.veins.nodes.Car\""
param *.manager.port 9999
param *.manager.updateInterval 1s
param *.node[*].appl.beaconInterval "0.1 s"
param *.node[*].appl.beaconLengthBits "3960 bit"
param *.node[*].appl.beaconPriority 3
param *.node[*].appl.dataLengthBits "3960 bit"
param *.node[*].appl.dataOnSch false
param *.node[*].appl.dataPriority 2
param *.node[*].appl.debug false
param *.node[*].appl.headerLength "80 bit"
param *.node[*].appl.maxOffset "0.005 s"
param *.node[*].appl.sendBeacons true
param *.node[*].appl.sendData false
param *.node[*].applType "\"TraCIDemo11p\""
param *.node[*].mobilityType "\"TraCIMobility\""
param *.node[*].mobilityType.debug true
param *.node[*].veinsmobility.x 0
param *.node[*].veinsmobility.y 0
param *.node[*].veinsmobility.z 1.895
param *.node[*].veinsmobilityType "\"org.car2x.veins.modules.mobility.traci.TraCIMobility\""
param *.node[*].veinsmobilityType.debug true
param *.obstacles.debug false
param *.playgroundSizeX 2000m
param *.playgroundSizeY 2000m
param *.playgroundSizeZ 50m
param *.world.use2D false
param *.world.useTorus false

scalar . 	cwmax 	2048
scalar . 	cwmin 	32
scalar . 	slotlength 	70
scalar . 	txPower 	25.12
scalar RSUExampleScenario2.node[5].nic.mac1609_4 	TotalLostPackets 	165
scalar RSUExampleScenario2.node[5].nic.mac1609_4 	delayMedio 	0.005198762841
scalar RSUExampleScenario2.node[5].nic.mac1609_4 	throughputMedioBPS 	787879.75632851
scalar RSUExampleScenario2.node[0].nic.mac1609_4 	TotalLostPackets 	210
scalar RSUExampleScenario2.node[0].nic.mac1609_4 	delayMedio 	0.004761330861
scalar RSUExampleScenario2.node[0].nic.mac1609_4 	throughputMedioBPS 	860263.67831078
scalar RSUExampleScenario2.node[14].nic.mac1609_4 	TotalLostPackets 	12
scalar RSUExampleScenario2.node[14].nic.mac1609_4 	delayMedio 	0.006564123997
scalar RSUExampleScenario2.node[14].nic.mac1609_4 	throughputMedioBPS 	623997.96253048
scalar RSUExampleScenario2.node[7].nic.mac1609_4 	TotalLostPackets 	252
scalar RSUExampleScenario2.node[7].nic.mac1609_4 	delayMedio 	0.007393668676
scalar RSUExampleScenario2.node[7].nic.mac1609_4 	throughputMedioBPS 	553987.49656616
scalar RSUExampleScenario2.node[2].nic.mac1609_4 	TotalLostPackets 	319
scalar RSUExampleScenario2.node[2].nic.mac1609_4 	delayMedio 	0.007997067423
scalar RSUExampleScenario2.node[2].nic.mac1609_4 	throughputMedioBPS 	512187.75378106
scalar RSUExampleScenario2.node[8].nic.mac1609_4 	TotalLostPackets 	86
scalar RSUExampleScenario2.node[8].nic.mac1609_4 	delayMedio 	0.007842580248
scalar RSUExampleScenario2.node[8].nic.mac1609_4 	throughputMedioBPS 	522277.09129372
scalar RSUExampleScenario2.node[3].nic.mac1609_4 	TotalLostPackets 	534
scalar RSUExampleScenario2.node[3].nic.mac1609_4 	delayMedio 	0.006422605545
scalar RSUExampleScenario2.node[3].nic.mac1609_4 	throughputMedioBPS 	637747.40194996
scalar RSUExampleScenario2.node[11].nic.mac1609_4 	TotalLostPackets 	122
scalar RSUExampleScenario2.node[11].nic.mac1609_4 	delayMedio 	0.007774141076
scalar RSUExampleScenario2.node[11].nic.mac1609_4 	throughputMedioBPS 	526874.92544048
scalar RSUExampleScenario2.node[17].nic.mac1609_4 	TotalLostPackets 	170
scalar RSUExampleScenario2.node[17].nic.mac1609_4 	delayMedio 	0.005862607043
scalar RSUExampleScenario2.node[17].nic.mac1609_4 	throughputMedioBPS 	698665.28151886
scalar RSUExampleScenario2.node[27].nic.mac1609_4 	TotalLostPackets 	0
scalar RSUExampleScenario2.node[27].nic.mac1609_4 	delayMedio 	0.011459364871
scalar RSUExampleScenario2.node[27].nic.mac1609_4 	throughputMedioBPS 	357436.91261328
scalar RSUExampleScenario2.node[12].nic.mac1609_4 	TotalLostPackets 	76
scalar RSUExampleScenario2.node[12].nic.mac1609_4 	delayMedio 	0.007965001966
scalar RSUExampleScenario2.node[12].nic.mac1609_4 	throughputMedioBPS 	514249.71615921
scalar RSUExampleScenario2.node[18].nic.mac1609_4 	TotalLostPackets 	261
scalar RSUExampleScenario2.node[18].nic.mac1609_4 	delayMedio 	0.004050081194
scalar RSUExampleScenario2.node[18].nic.mac1609_4 	throughputMedioBPS 	1011337.7495135
scalar RSUExampleScenario2.node[22].nic.mac1609_4 	TotalLostPackets 	102
scalar RSUExampleScenario2.node[22].nic.mac1609_4 	delayMedio 	0.007210827302
scalar RSUExampleScenario2.node[22].nic.mac1609_4 	throughputMedioBPS 	568034.68292325
scalar RSUExampleScenario2.node[28].nic.mac1609_4 	TotalLostPackets 	51
scalar RSUExampleScenario2.node[28].nic.mac1609_4 	delayMedio 	0.01097618344
scalar RSUExampleScenario2.node[28].nic.mac1609_4 	throughputMedioBPS 	373171.6057977
scalar RSUExampleScenario2.node[33].nic.mac1609_4 	TotalLostPackets 	80
scalar RSUExampleScenario2.node[33].nic.mac1609_4 	delayMedio 	0.000722492853
scalar RSUExampleScenario2.node[33].nic.mac1609_4 	throughputMedioBPS 	5669260.2292823
scalar RSUExampleScenario2.node[1].nic.mac1609_4 	TotalLostPackets 	487
scalar RSUExampleScenario2.node[1].nic.mac1609_4 	delayMedio 	0.006268244729
scalar RSUExampleScenario2.node[1].nic.mac1609_4 	throughputMedioBPS 	653452.46986382
scalar RSUExampleScenario2.node[29].nic.mac1609_4 	TotalLostPackets 	1
scalar RSUExampleScenario2.node[29].nic.mac1609_4 	delayMedio 	0.010498216503
scalar RSUExampleScenario2.node[29].nic.mac1609_4 	throughputMedioBPS 	390161.50972029
scalar RSUExampleScenario2.node[34].nic.mac1609_4 	TotalLostPackets 	160
scalar RSUExampleScenario2.node[34].nic.mac1609_4 	delayMedio 	0.000787822577
scalar RSUExampleScenario2.node[34].nic.mac1609_4 	throughputMedioBPS 	5199140.1601772
scalar RSUExampleScenario2.node[9].nic.mac1609_4 	TotalLostPackets 	140
scalar RSUExampleScenario2.node[9].nic.mac1609_4 	delayMedio 	0.006600937422
scalar RSUExampleScenario2.node[9].nic.mac1609_4 	throughputMedioBPS 	620517.92616852
scalar RSUExampleScenario2.node[15].nic.mac1609_4 	TotalLostPackets 	3
scalar RSUExampleScenario2.node[15].nic.mac1609_4 	delayMedio 	0.008579235406
scalar RSUExampleScenario2.node[15].nic.mac1609_4 	throughputMedioBPS 	477431.82304017
scalar RSUExampleScenario2.node[20].nic.mac1609_4 	TotalLostPackets 	142
scalar RSUExampleScenario2.node[20].nic.mac1609_4 	delayMedio 	0.003762461216
scalar RSUExampleScenario2.node[20].nic.mac1609_4 	throughputMedioBPS 	1088649.0955809
scalar RSUExampleScenario2.node[23].nic.mac1609_4 	TotalLostPackets 	358
scalar RSUExampleScenario2.node[23].nic.mac1609_4 	delayMedio 	0.006437356351
scalar RSUExampleScenario2.node[23].nic.mac1609_4 	throughputMedioBPS 	636286.04298362
scalar RSUExampleScenario2.node[25].nic.mac1609_4 	TotalLostPackets 	70
scalar RSUExampleScenario2.node[25].nic.mac1609_4 	delayMedio 	0.006222740838
scalar RSUExampleScenario2.node[25].nic.mac1609_4 	throughputMedioBPS 	658230.85147861
scalar RSUExampleScenario2.node[4].nic.mac1609_4 	TotalLostPackets 	510
scalar RSUExampleScenario2.node[4].nic.mac1609_4 	delayMedio 	0.006527343125
scalar RSUExampleScenario2.node[4].nic.mac1609_4 	throughputMedioBPS 	627514.12355726
scalar RSUExampleScenario2.node[19].nic.mac1609_4 	TotalLostPackets 	3
scalar RSUExampleScenario2.node[19].nic.mac1609_4 	delayMedio 	0.0067116987
scalar RSUExampleScenario2.node[19].nic.mac1609_4 	throughputMedioBPS 	610277.69318451
scalar RSUExampleScenario2.node[21].nic.mac1609_4 	TotalLostPackets 	131
scalar RSUExampleScenario2.node[21].nic.mac1609_4 	delayMedio 	0.005905921811
scalar RSUExampleScenario2.node[21].nic.mac1609_4 	throughputMedioBPS 	693541.18304045
scalar RSUExampleScenario2.node[24].nic.mac1609_4 	TotalLostPackets 	158
scalar RSUExampleScenario2.node[24].nic.mac1609_4 	delayMedio 	0.004182830853
scalar RSUExampleScenario2.node[24].nic.mac1609_4 	throughputMedioBPS 	979241.12743081
scalar RSUExampleScenario2.node[26].nic.mac1609_4 	TotalLostPackets 	3
scalar RSUExampleScenario2.node[26].nic.mac1609_4 	delayMedio 	0.00774533314
scalar RSUExampleScenario2.node[26].nic.mac1609_4 	throughputMedioBPS 	528834.58024633
scalar RSUExampleScenario2.node[30].nic.mac1609_4 	TotalLostPackets 	40
scalar RSUExampleScenario2.node[30].nic.mac1609_4 	delayMedio 	0.007262533317
scalar RSUExampleScenario2.node[30].nic.mac1609_4 	throughputMedioBPS 	563990.52802259
scalar RSUExampleScenario2.node[31].nic.mac1609_4 	TotalLostPackets 	6
scalar RSUExampleScenario2.node[31].nic.mac1609_4 	delayMedio 	0.013339020529
scalar RSUExampleScenario2.node[31].nic.mac1609_4 	throughputMedioBPS 	307069.02287804
scalar RSUExampleScenario2.node[32].nic.mac1609_4 	TotalLostPackets 	0
scalar RSUExampleScenario2.node[32].nic.mac1609_4 	delayMedio 	0.000722828899
scalar RSUExampleScenario2.node[32].nic.mac1609_4 	throughputMedioBPS 	5666624.5733944
scalar RSUExampleScenario2.node[35].nic.mac1609_4 	TotalLostPackets 	60
scalar RSUExampleScenario2.node[35].nic.mac1609_4 	delayMedio 	0.000722355188
scalar RSUExampleScenario2.node[35].nic.mac1609_4 	throughputMedioBPS 	5670340.6674584
scalar RSUExampleScenario2.node[10].nic.mac1609_4 	TotalLostPackets 	24
scalar RSUExampleScenario2.node[10].nic.mac1609_4 	delayMedio 	0.006796703208
scalar RSUExampleScenario2.node[10].nic.mac1609_4 	throughputMedioBPS 	602645.11697985
scalar RSUExampleScenario2.node[13].nic.mac1609_4 	TotalLostPackets 	90
scalar RSUExampleScenario2.node[13].nic.mac1609_4 	delayMedio 	0.007792659499
scalar RSUExampleScenario2.node[13].nic.mac1609_4 	throughputMedioBPS 	525622.86349894
scalar RSUExampleScenario2.node[16].nic.mac1609_4 	TotalLostPackets 	190
scalar RSUExampleScenario2.node[16].nic.mac1609_4 	delayMedio 	0.006554461917
scalar RSUExampleScenario2.node[16].nic.mac1609_4 	throughputMedioBPS 	624917.81199623
