version 2
run v1-900-20171203-10:46:13-8763
attr configname v1
attr cwmax 1024
attr cwmin 32
attr datetime 20171203-10:46:13
attr experiment v1
attr inifile omnetpp.ini
attr iterationvars "$cwmin=32, $cwmax=1024, $slotlength=50, $txPower=10"
attr iterationvars2 "$cwmin=32, $cwmax=1024, $slotlength=50, $txPower=10, $repetition=0"
attr measurement "$cwmin=32, $cwmax=1024, $slotlength=50, $txPower=10"
attr network RSUExampleScenario2
attr processid 8763
attr repetition 0
attr replication #0
attr resultdir results
attr runnumber 900
attr seedset 900
attr slotlength 50
attr txPower 10
param **.coreDebug true
param **.debug true
param *.**.nic.mac1609_4.bitrate 6Mbps
param *.**.nic.mac1609_4.cwmax_ "${cwmax=1024, 2048, 4096}"
param *.**.nic.mac1609_4.cwmin_ "${cwmin=16, 32, 64}"
param *.**.nic.mac1609_4.slotlength_ "${slotlength=5..100 step 5}ms"
param *.**.nic.mac1609_4.txPower "${txPower=1.26, 2.51, 3.98, 10, 15.85, 25.12, 50.12, 100, 251.19, 501.19, 794.33, 1258.93, 1584.89}mW"
param *.**.nic.mac1609_4.useServiceChannel false
param *.**.nic.phy80211p.analogueModels "xmldoc(\"config.xml\")"
param *.**.nic.phy80211p.decider "xmldoc(\"config.xml\")"
param *.**.nic.phy80211p.sensitivity -89dBm
param *.**.nic.phy80211p.thermalNoise -110dBm
param *.**.nic.phy80211p.usePropagationDelay true
param *.**.nic.phy80211p.useThermalNoise true
param *.annotations.draw false
param *.connectionManager.alpha 2.0
param *.connectionManager.carrierFrequency "5.890e9 Hz"
param *.connectionManager.drawMaxIntfDist false
param *.connectionManager.maxInterfDist 2600m
param *.connectionManager.pMax 20mW
param *.connectionManager.sat -89dBm
param *.connectionManager.sendDirect true
param *.manager.autoShutdown true
param *.manager.host "\"localhost\""
param *.manager.launchConfig "xmldoc(\"osm.launchd.xml\")"
param *.manager.margin 25
param *.manager.moduleDisplayString "\"\""
param *.manager.moduleName "\"node\""
param *.manager.moduleType "\"org.car2x.veins.nodes.Car\""
param *.manager.port 9999
param *.manager.updateInterval 1s
param *.node[*].appl.beaconInterval "0.1 s"
param *.node[*].appl.beaconLengthBits "3960 bit"
param *.node[*].appl.beaconPriority 3
param *.node[*].appl.dataLengthBits "3960 bit"
param *.node[*].appl.dataOnSch false
param *.node[*].appl.dataPriority 2
param *.node[*].appl.debug false
param *.node[*].appl.headerLength "80 bit"
param *.node[*].appl.maxOffset "0.005 s"
param *.node[*].appl.sendBeacons true
param *.node[*].appl.sendData false
param *.node[*].applType "\"TraCIDemo11p\""
param *.node[*].mobilityType "\"TraCIMobility\""
param *.node[*].mobilityType.debug true
param *.node[*].veinsmobility.x 0
param *.node[*].veinsmobility.y 0
param *.node[*].veinsmobility.z 1.895
param *.node[*].veinsmobilityType "\"org.car2x.veins.modules.mobility.traci.TraCIMobility\""
param *.node[*].veinsmobilityType.debug true
param *.obstacles.debug false
param *.playgroundSizeX 2000m
param *.playgroundSizeY 2000m
param *.playgroundSizeZ 50m
param *.world.use2D false
param *.world.useTorus false

scalar . 	cwmax 	1024
scalar . 	cwmin 	32
scalar . 	slotlength 	50
scalar . 	txPower 	10
scalar RSUExampleScenario2.node[5].nic.mac1609_4 	TotalLostPackets 	112
scalar RSUExampleScenario2.node[5].nic.mac1609_4 	delayMedio 	0.008368582003
scalar RSUExampleScenario2.node[5].nic.mac1609_4 	throughputMedioBPS 	489449.70586686
scalar RSUExampleScenario2.node[0].nic.mac1609_4 	TotalLostPackets 	31
scalar RSUExampleScenario2.node[0].nic.mac1609_4 	delayMedio 	0.004373589228
scalar RSUExampleScenario2.node[0].nic.mac1609_4 	throughputMedioBPS 	936530.56712023
scalar RSUExampleScenario2.node[14].nic.mac1609_4 	TotalLostPackets 	21
scalar RSUExampleScenario2.node[14].nic.mac1609_4 	delayMedio 	0.004906129239
scalar RSUExampleScenario2.node[14].nic.mac1609_4 	throughputMedioBPS 	834874.05246426
scalar RSUExampleScenario2.node[7].nic.mac1609_4 	TotalLostPackets 	73
scalar RSUExampleScenario2.node[7].nic.mac1609_4 	delayMedio 	0.007586015474
scalar RSUExampleScenario2.node[7].nic.mac1609_4 	throughputMedioBPS 	539940.89701116
scalar RSUExampleScenario2.node[2].nic.mac1609_4 	TotalLostPackets 	221
scalar RSUExampleScenario2.node[2].nic.mac1609_4 	delayMedio 	0.009634023289
scalar RSUExampleScenario2.node[2].nic.mac1609_4 	throughputMedioBPS 	425159.86074777
scalar RSUExampleScenario2.node[8].nic.mac1609_4 	TotalLostPackets 	2
scalar RSUExampleScenario2.node[8].nic.mac1609_4 	delayMedio 	0.003105562811
scalar RSUExampleScenario2.node[8].nic.mac1609_4 	throughputMedioBPS 	1318923.5732395
scalar RSUExampleScenario2.node[3].nic.mac1609_4 	TotalLostPackets 	261
scalar RSUExampleScenario2.node[3].nic.mac1609_4 	delayMedio 	0.009873392708
scalar RSUExampleScenario2.node[3].nic.mac1609_4 	throughputMedioBPS 	414852.33305467
scalar RSUExampleScenario2.node[11].nic.mac1609_4 	TotalLostPackets 	1
scalar RSUExampleScenario2.node[11].nic.mac1609_4 	delayMedio 	0.010128948426
scalar RSUExampleScenario2.node[11].nic.mac1609_4 	throughputMedioBPS 	404385.51246053
scalar RSUExampleScenario2.node[17].nic.mac1609_4 	TotalLostPackets 	1
scalar RSUExampleScenario2.node[17].nic.mac1609_4 	delayMedio 	0.00543708753
scalar RSUExampleScenario2.node[17].nic.mac1609_4 	throughputMedioBPS 	753344.50236886
scalar RSUExampleScenario2.node[27].nic.mac1609_4 	TotalLostPackets 	109
scalar RSUExampleScenario2.node[27].nic.mac1609_4 	delayMedio 	0.04914563523
scalar RSUExampleScenario2.node[27].nic.mac1609_4 	throughputMedioBPS 	83344.125695166
scalar RSUExampleScenario2.node[12].nic.mac1609_4 	TotalLostPackets 	40
scalar RSUExampleScenario2.node[12].nic.mac1609_4 	delayMedio 	0.010460575336
scalar RSUExampleScenario2.node[12].nic.mac1609_4 	throughputMedioBPS 	391565.46063661
scalar RSUExampleScenario2.node[18].nic.mac1609_4 	TotalLostPackets 	343
scalar RSUExampleScenario2.node[18].nic.mac1609_4 	delayMedio 	0.009382186961
scalar RSUExampleScenario2.node[18].nic.mac1609_4 	throughputMedioBPS 	436571.98659128
scalar RSUExampleScenario2.node[22].nic.mac1609_4 	TotalLostPackets 	62
scalar RSUExampleScenario2.node[22].nic.mac1609_4 	delayMedio 	0.008261338708
scalar RSUExampleScenario2.node[22].nic.mac1609_4 	throughputMedioBPS 	495803.42178928
scalar RSUExampleScenario2.node[28].nic.mac1609_4 	TotalLostPackets 	97
scalar RSUExampleScenario2.node[28].nic.mac1609_4 	delayMedio 	0.01577960014
scalar RSUExampleScenario2.node[28].nic.mac1609_4 	throughputMedioBPS 	259575.65233994
scalar RSUExampleScenario2.node[1].nic.mac1609_4 	TotalLostPackets 	238
scalar RSUExampleScenario2.node[1].nic.mac1609_4 	delayMedio 	0.009775125644
scalar RSUExampleScenario2.node[1].nic.mac1609_4 	throughputMedioBPS 	419022.74705386
scalar RSUExampleScenario2.node[29].nic.mac1609_4 	TotalLostPackets 	0
scalar RSUExampleScenario2.node[29].nic.mac1609_4 	delayMedio 	0.05180180782
scalar RSUExampleScenario2.node[29].nic.mac1609_4 	throughputMedioBPS 	79070.599509186
scalar RSUExampleScenario2.node[34].nic.mac1609_4 	TotalLostPackets 	62
scalar RSUExampleScenario2.node[34].nic.mac1609_4 	delayMedio 	0.000721880546
scalar RSUExampleScenario2.node[34].nic.mac1609_4 	throughputMedioBPS 	5674068.9601501
scalar RSUExampleScenario2.node[9].nic.mac1609_4 	TotalLostPackets 	3
scalar RSUExampleScenario2.node[9].nic.mac1609_4 	delayMedio 	0.005989344313
scalar RSUExampleScenario2.node[9].nic.mac1609_4 	throughputMedioBPS 	683881.20406429
scalar RSUExampleScenario2.node[15].nic.mac1609_4 	TotalLostPackets 	96
scalar RSUExampleScenario2.node[15].nic.mac1609_4 	delayMedio 	0.007765761877
scalar RSUExampleScenario2.node[15].nic.mac1609_4 	throughputMedioBPS 	527443.41957634
scalar RSUExampleScenario2.node[20].nic.mac1609_4 	TotalLostPackets 	0
scalar RSUExampleScenario2.node[20].nic.mac1609_4 	delayMedio 	0.004837712871
scalar RSUExampleScenario2.node[20].nic.mac1609_4 	throughputMedioBPS 	846681.08866438
scalar RSUExampleScenario2.node[23].nic.mac1609_4 	TotalLostPackets 	273
scalar RSUExampleScenario2.node[23].nic.mac1609_4 	delayMedio 	0.009764545024
scalar RSUExampleScenario2.node[23].nic.mac1609_4 	throughputMedioBPS 	419476.78975511
scalar RSUExampleScenario2.node[25].nic.mac1609_4 	TotalLostPackets 	1
scalar RSUExampleScenario2.node[25].nic.mac1609_4 	delayMedio 	0.01016519312
scalar RSUExampleScenario2.node[25].nic.mac1609_4 	throughputMedioBPS 	402943.64817511
scalar RSUExampleScenario2.node[4].nic.mac1609_4 	TotalLostPackets 	247
scalar RSUExampleScenario2.node[4].nic.mac1609_4 	delayMedio 	0.009595316362
scalar RSUExampleScenario2.node[4].nic.mac1609_4 	throughputMedioBPS 	426874.92998135
scalar RSUExampleScenario2.node[19].nic.mac1609_4 	TotalLostPackets 	11
scalar RSUExampleScenario2.node[19].nic.mac1609_4 	delayMedio 	0.007813892203
scalar RSUExampleScenario2.node[19].nic.mac1609_4 	throughputMedioBPS 	524194.58748118
scalar RSUExampleScenario2.node[21].nic.mac1609_4 	TotalLostPackets 	4
scalar RSUExampleScenario2.node[21].nic.mac1609_4 	delayMedio 	0.006095335177
scalar RSUExampleScenario2.node[21].nic.mac1609_4 	throughputMedioBPS 	671989.29689691
scalar RSUExampleScenario2.node[24].nic.mac1609_4 	TotalLostPackets 	0
scalar RSUExampleScenario2.node[24].nic.mac1609_4 	delayMedio 	0.005257930433
scalar RSUExampleScenario2.node[24].nic.mac1609_4 	throughputMedioBPS 	779013.73027472
scalar RSUExampleScenario2.node[26].nic.mac1609_4 	TotalLostPackets 	229
scalar RSUExampleScenario2.node[26].nic.mac1609_4 	delayMedio 	0.008856762545
scalar RSUExampleScenario2.node[26].nic.mac1609_4 	throughputMedioBPS 	462471.47074314
scalar RSUExampleScenario2.node[30].nic.mac1609_4 	TotalLostPackets 	0
scalar RSUExampleScenario2.node[30].nic.mac1609_4 	delayMedio 	0.010074441541
scalar RSUExampleScenario2.node[30].nic.mac1609_4 	throughputMedioBPS 	406573.40491451
scalar RSUExampleScenario2.node[31].nic.mac1609_4 	TotalLostPackets 	0
scalar RSUExampleScenario2.node[31].nic.mac1609_4 	delayMedio 	0.05983438778
scalar RSUExampleScenario2.node[31].nic.mac1609_4 	throughputMedioBPS 	68455.618114587
scalar RSUExampleScenario2.node[32].nic.mac1609_4 	TotalLostPackets 	0
scalar RSUExampleScenario2.node[32].nic.mac1609_4 	delayMedio 	0.020820266081
scalar RSUExampleScenario2.node[32].nic.mac1609_4 	throughputMedioBPS 	196731.39545962
scalar RSUExampleScenario2.node[35].nic.mac1609_4 	TotalLostPackets 	0
scalar RSUExampleScenario2.node[35].nic.mac1609_4 	delayMedio 	0.000721731156
scalar RSUExampleScenario2.node[35].nic.mac1609_4 	throughputMedioBPS 	5675243.4276861
scalar RSUExampleScenario2.node[10].nic.mac1609_4 	TotalLostPackets 	154
scalar RSUExampleScenario2.node[10].nic.mac1609_4 	delayMedio 	0.006655747963
scalar RSUExampleScenario2.node[10].nic.mac1609_4 	throughputMedioBPS 	615407.91853212
scalar RSUExampleScenario2.node[13].nic.mac1609_4 	TotalLostPackets 	1
scalar RSUExampleScenario2.node[13].nic.mac1609_4 	delayMedio 	0.011584889516
scalar RSUExampleScenario2.node[13].nic.mac1609_4 	throughputMedioBPS 	353564.01061832
scalar RSUExampleScenario2.node[16].nic.mac1609_4 	TotalLostPackets 	3
scalar RSUExampleScenario2.node[16].nic.mac1609_4 	delayMedio 	0.007382672657
scalar RSUExampleScenario2.node[16].nic.mac1609_4 	throughputMedioBPS 	554812.62552306
