version 2
run v1-1211-20171204-10:39:27-8763
attr configname v1
attr cwmax 2048
attr cwmin 32
attr datetime 20171204-10:39:27
attr experiment v1
attr inifile omnetpp.ini
attr iterationvars "$cwmin=32, $cwmax=2048, $slotlength=70, $txPower=3.98"
attr iterationvars2 "$cwmin=32, $cwmax=2048, $slotlength=70, $txPower=3.98, $repetition=0"
attr measurement "$cwmin=32, $cwmax=2048, $slotlength=70, $txPower=3.98"
attr network RSUExampleScenario2
attr processid 8763
attr repetition 0
attr replication #0
attr resultdir results
attr runnumber 1211
attr seedset 1211
attr slotlength 70
attr txPower 3.98
param **.coreDebug true
param **.debug true
param *.**.nic.mac1609_4.bitrate 6Mbps
param *.**.nic.mac1609_4.cwmax_ "${cwmax=1024, 2048, 4096}"
param *.**.nic.mac1609_4.cwmin_ "${cwmin=16, 32, 64}"
param *.**.nic.mac1609_4.slotlength_ "${slotlength=5..100 step 5}ms"
param *.**.nic.mac1609_4.txPower "${txPower=1.26, 2.51, 3.98, 10, 15.85, 25.12, 50.12, 100, 251.19, 501.19, 794.33, 1258.93, 1584.89}mW"
param *.**.nic.mac1609_4.useServiceChannel false
param *.**.nic.phy80211p.analogueModels "xmldoc(\"config.xml\")"
param *.**.nic.phy80211p.decider "xmldoc(\"config.xml\")"
param *.**.nic.phy80211p.sensitivity -89dBm
param *.**.nic.phy80211p.thermalNoise -110dBm
param *.**.nic.phy80211p.usePropagationDelay true
param *.**.nic.phy80211p.useThermalNoise true
param *.annotations.draw false
param *.connectionManager.alpha 2.0
param *.connectionManager.carrierFrequency "5.890e9 Hz"
param *.connectionManager.drawMaxIntfDist false
param *.connectionManager.maxInterfDist 2600m
param *.connectionManager.pMax 20mW
param *.connectionManager.sat -89dBm
param *.connectionManager.sendDirect true
param *.manager.autoShutdown true
param *.manager.host "\"localhost\""
param *.manager.launchConfig "xmldoc(\"osm.launchd.xml\")"
param *.manager.margin 25
param *.manager.moduleDisplayString "\"\""
param *.manager.moduleName "\"node\""
param *.manager.moduleType "\"org.car2x.veins.nodes.Car\""
param *.manager.port 9999
param *.manager.updateInterval 1s
param *.node[*].appl.beaconInterval "0.1 s"
param *.node[*].appl.beaconLengthBits "3960 bit"
param *.node[*].appl.beaconPriority 3
param *.node[*].appl.dataLengthBits "3960 bit"
param *.node[*].appl.dataOnSch false
param *.node[*].appl.dataPriority 2
param *.node[*].appl.debug false
param *.node[*].appl.headerLength "80 bit"
param *.node[*].appl.maxOffset "0.005 s"
param *.node[*].appl.sendBeacons true
param *.node[*].appl.sendData false
param *.node[*].applType "\"TraCIDemo11p\""
param *.node[*].mobilityType "\"TraCIMobility\""
param *.node[*].mobilityType.debug true
param *.node[*].veinsmobility.x 0
param *.node[*].veinsmobility.y 0
param *.node[*].veinsmobility.z 1.895
param *.node[*].veinsmobilityType "\"org.car2x.veins.modules.mobility.traci.TraCIMobility\""
param *.node[*].veinsmobilityType.debug true
param *.obstacles.debug false
param *.playgroundSizeX 2000m
param *.playgroundSizeY 2000m
param *.playgroundSizeZ 50m
param *.world.use2D false
param *.world.useTorus false

scalar . 	cwmax 	2048
scalar . 	cwmin 	32
scalar . 	slotlength 	70
scalar . 	txPower 	3.98
scalar RSUExampleScenario2.node[5].nic.mac1609_4 	TotalLostPackets 	0
scalar RSUExampleScenario2.node[5].nic.mac1609_4 	delayMedio 	0.00428322047
scalar RSUExampleScenario2.node[5].nic.mac1609_4 	throughputMedioBPS 	956289.78916951
scalar RSUExampleScenario2.node[0].nic.mac1609_4 	TotalLostPackets 	0
scalar RSUExampleScenario2.node[0].nic.mac1609_4 	delayMedio 	0.005998040715
scalar RSUExampleScenario2.node[0].nic.mac1609_4 	throughputMedioBPS 	682889.66255517
scalar RSUExampleScenario2.node[14].nic.mac1609_4 	TotalLostPackets 	33
scalar RSUExampleScenario2.node[14].nic.mac1609_4 	delayMedio 	0.008590283847
scalar RSUExampleScenario2.node[14].nic.mac1609_4 	throughputMedioBPS 	476817.77141997
scalar RSUExampleScenario2.node[2].nic.mac1609_4 	TotalLostPackets 	0
scalar RSUExampleScenario2.node[2].nic.mac1609_4 	delayMedio 	0.001670113385
scalar RSUExampleScenario2.node[2].nic.mac1609_4 	throughputMedioBPS 	2452528.0954238
scalar RSUExampleScenario2.node[7].nic.mac1609_4 	TotalLostPackets 	0
scalar RSUExampleScenario2.node[7].nic.mac1609_4 	delayMedio 	0.007821672102
scalar RSUExampleScenario2.node[7].nic.mac1609_4 	throughputMedioBPS 	523673.19243955
scalar RSUExampleScenario2.node[8].nic.mac1609_4 	TotalLostPackets 	0
scalar RSUExampleScenario2.node[8].nic.mac1609_4 	delayMedio 	0.000721527979
scalar RSUExampleScenario2.node[8].nic.mac1609_4 	throughputMedioBPS 	5676841.5378485
scalar RSUExampleScenario2.node[3].nic.mac1609_4 	TotalLostPackets 	170
scalar RSUExampleScenario2.node[3].nic.mac1609_4 	delayMedio 	0.002118514468
scalar RSUExampleScenario2.node[3].nic.mac1609_4 	throughputMedioBPS 	1933430.2702027
scalar RSUExampleScenario2.node[11].nic.mac1609_4 	TotalLostPackets 	0
scalar RSUExampleScenario2.node[11].nic.mac1609_4 	delayMedio 	0.003985531531
scalar RSUExampleScenario2.node[11].nic.mac1609_4 	throughputMedioBPS 	1027717.3741584
scalar RSUExampleScenario2.node[17].nic.mac1609_4 	TotalLostPackets 	0
scalar RSUExampleScenario2.node[17].nic.mac1609_4 	delayMedio 	0.007320154484
scalar RSUExampleScenario2.node[17].nic.mac1609_4 	throughputMedioBPS 	559551.03255579
scalar RSUExampleScenario2.node[27].nic.mac1609_4 	TotalLostPackets 	0
scalar RSUExampleScenario2.node[27].nic.mac1609_4 	delayMedio 	0.000721543961
scalar RSUExampleScenario2.node[27].nic.mac1609_4 	throughputMedioBPS 	5676715.7942372
scalar RSUExampleScenario2.node[12].nic.mac1609_4 	TotalLostPackets 	0
scalar RSUExampleScenario2.node[12].nic.mac1609_4 	delayMedio 	0.003157239036
scalar RSUExampleScenario2.node[12].nic.mac1609_4 	throughputMedioBPS 	1297336.0437564
scalar RSUExampleScenario2.node[18].nic.mac1609_4 	TotalLostPackets 	0
scalar RSUExampleScenario2.node[18].nic.mac1609_4 	delayMedio 	0.009237742905
scalar RSUExampleScenario2.node[18].nic.mac1609_4 	throughputMedioBPS 	443398.35414713
scalar RSUExampleScenario2.node[22].nic.mac1609_4 	TotalLostPackets 	20
scalar RSUExampleScenario2.node[22].nic.mac1609_4 	delayMedio 	0.000721367645
scalar RSUExampleScenario2.node[22].nic.mac1609_4 	throughputMedioBPS 	5678103.2906527
scalar RSUExampleScenario2.node[28].nic.mac1609_4 	TotalLostPackets 	0
scalar RSUExampleScenario2.node[28].nic.mac1609_4 	delayMedio 	0.000721372018
scalar RSUExampleScenario2.node[28].nic.mac1609_4 	throughputMedioBPS 	5678068.8719038
scalar RSUExampleScenario2.node[1].nic.mac1609_4 	TotalLostPackets 	51
scalar RSUExampleScenario2.node[1].nic.mac1609_4 	delayMedio 	0.002749706408
scalar RSUExampleScenario2.node[1].nic.mac1609_4 	throughputMedioBPS 	1489613.5776147
scalar RSUExampleScenario2.node[29].nic.mac1609_4 	TotalLostPackets 	0
scalar RSUExampleScenario2.node[29].nic.mac1609_4 	delayMedio 	0.000721307213
scalar RSUExampleScenario2.node[29].nic.mac1609_4 	throughputMedioBPS 	5678579.0067999
scalar RSUExampleScenario2.node[34].nic.mac1609_4 	TotalLostPackets 	2
scalar RSUExampleScenario2.node[34].nic.mac1609_4 	delayMedio 	0.000721339847
scalar RSUExampleScenario2.node[34].nic.mac1609_4 	throughputMedioBPS 	5678322.1034573
scalar RSUExampleScenario2.node[9].nic.mac1609_4 	TotalLostPackets 	5
scalar RSUExampleScenario2.node[9].nic.mac1609_4 	delayMedio 	0.007497157678
scalar RSUExampleScenario2.node[9].nic.mac1609_4 	throughputMedioBPS 	546340.38336418
scalar RSUExampleScenario2.node[15].nic.mac1609_4 	TotalLostPackets 	0
scalar RSUExampleScenario2.node[15].nic.mac1609_4 	delayMedio 	0.009639325272
scalar RSUExampleScenario2.node[15].nic.mac1609_4 	throughputMedioBPS 	424926.00719316
scalar RSUExampleScenario2.node[20].nic.mac1609_4 	TotalLostPackets 	0
scalar RSUExampleScenario2.node[20].nic.mac1609_4 	delayMedio 	0.007954319822
scalar RSUExampleScenario2.node[20].nic.mac1609_4 	throughputMedioBPS 	514940.32066513
scalar RSUExampleScenario2.node[23].nic.mac1609_4 	TotalLostPackets 	0
scalar RSUExampleScenario2.node[23].nic.mac1609_4 	delayMedio 	0.00072143471
scalar RSUExampleScenario2.node[23].nic.mac1609_4 	throughputMedioBPS 	5677575.4527908
scalar RSUExampleScenario2.node[25].nic.mac1609_4 	TotalLostPackets 	0
scalar RSUExampleScenario2.node[25].nic.mac1609_4 	delayMedio 	0.006591610409
scalar RSUExampleScenario2.node[25].nic.mac1609_4 	throughputMedioBPS 	621395.94818087
scalar RSUExampleScenario2.node[4].nic.mac1609_4 	TotalLostPackets 	20
scalar RSUExampleScenario2.node[4].nic.mac1609_4 	delayMedio 	0.002759842717
scalar RSUExampleScenario2.node[4].nic.mac1609_4 	throughputMedioBPS 	1484142.5474547
scalar RSUExampleScenario2.node[19].nic.mac1609_4 	TotalLostPackets 	0
scalar RSUExampleScenario2.node[19].nic.mac1609_4 	delayMedio 	0.010062270987
scalar RSUExampleScenario2.node[19].nic.mac1609_4 	throughputMedioBPS 	407065.16505802
scalar RSUExampleScenario2.node[21].nic.mac1609_4 	TotalLostPackets 	132
scalar RSUExampleScenario2.node[21].nic.mac1609_4 	delayMedio 	0.008680779172
scalar RSUExampleScenario2.node[21].nic.mac1609_4 	throughputMedioBPS 	471847.04492768
scalar RSUExampleScenario2.node[24].nic.mac1609_4 	TotalLostPackets 	0
scalar RSUExampleScenario2.node[24].nic.mac1609_4 	delayMedio 	0.005385530174
scalar RSUExampleScenario2.node[24].nic.mac1609_4 	throughputMedioBPS 	760556.50372082
scalar RSUExampleScenario2.node[26].nic.mac1609_4 	TotalLostPackets 	0
scalar RSUExampleScenario2.node[26].nic.mac1609_4 	delayMedio 	0.000721436552
scalar RSUExampleScenario2.node[26].nic.mac1609_4 	throughputMedioBPS 	5677560.9540316
scalar RSUExampleScenario2.node[30].nic.mac1609_4 	TotalLostPackets 	0
scalar RSUExampleScenario2.node[30].nic.mac1609_4 	delayMedio 	0.004235727821
scalar RSUExampleScenario2.node[30].nic.mac1609_4 	throughputMedioBPS 	967012.08705208
scalar RSUExampleScenario2.node[31].nic.mac1609_4 	TotalLostPackets 	0
scalar RSUExampleScenario2.node[31].nic.mac1609_4 	delayMedio 	0.000721305128
scalar RSUExampleScenario2.node[31].nic.mac1609_4 	throughputMedioBPS 	5678595.4278701
scalar RSUExampleScenario2.node[35].nic.mac1609_4 	TotalLostPackets 	0
scalar RSUExampleScenario2.node[35].nic.mac1609_4 	delayMedio 	0.000721367603
scalar RSUExampleScenario2.node[35].nic.mac1609_4 	throughputMedioBPS 	5678103.6254725
scalar RSUExampleScenario2.node[10].nic.mac1609_4 	TotalLostPackets 	0
scalar RSUExampleScenario2.node[10].nic.mac1609_4 	delayMedio 	0.005999770086
scalar RSUExampleScenario2.node[10].nic.mac1609_4 	throughputMedioBPS 	682692.82676087
scalar RSUExampleScenario2.node[13].nic.mac1609_4 	TotalLostPackets 	0
scalar RSUExampleScenario2.node[13].nic.mac1609_4 	delayMedio 	0.003328538986
scalar RSUExampleScenario2.node[13].nic.mac1609_4 	throughputMedioBPS 	1230569.9339476
scalar RSUExampleScenario2.node[16].nic.mac1609_4 	TotalLostPackets 	0
scalar RSUExampleScenario2.node[16].nic.mac1609_4 	delayMedio 	0.005614827468
scalar RSUExampleScenario2.node[16].nic.mac1609_4 	throughputMedioBPS 	729497.03685495
