version 2
run v1-1064-20171203-23:23:38-8763
attr configname v1
attr cwmax 2048
attr cwmin 32
attr datetime 20171203-23:23:38
attr experiment v1
attr inifile omnetpp.ini
attr iterationvars "$cwmin=32, $cwmax=2048, $slotlength=10, $txPower=1258.93"
attr iterationvars2 "$cwmin=32, $cwmax=2048, $slotlength=10, $txPower=1258.93, $repetition=0"
attr measurement "$cwmin=32, $cwmax=2048, $slotlength=10, $txPower=1258.93"
attr network RSUExampleScenario2
attr processid 8763
attr repetition 0
attr replication #0
attr resultdir results
attr runnumber 1064
attr seedset 1064
attr slotlength 10
attr txPower 1258.93
param **.coreDebug true
param **.debug true
param *.**.nic.mac1609_4.bitrate 6Mbps
param *.**.nic.mac1609_4.cwmax_ "${cwmax=1024, 2048, 4096}"
param *.**.nic.mac1609_4.cwmin_ "${cwmin=16, 32, 64}"
param *.**.nic.mac1609_4.slotlength_ "${slotlength=5..100 step 5}ms"
param *.**.nic.mac1609_4.txPower "${txPower=1.26, 2.51, 3.98, 10, 15.85, 25.12, 50.12, 100, 251.19, 501.19, 794.33, 1258.93, 1584.89}mW"
param *.**.nic.mac1609_4.useServiceChannel false
param *.**.nic.phy80211p.analogueModels "xmldoc(\"config.xml\")"
param *.**.nic.phy80211p.decider "xmldoc(\"config.xml\")"
param *.**.nic.phy80211p.sensitivity -89dBm
param *.**.nic.phy80211p.thermalNoise -110dBm
param *.**.nic.phy80211p.usePropagationDelay true
param *.**.nic.phy80211p.useThermalNoise true
param *.annotations.draw false
param *.connectionManager.alpha 2.0
param *.connectionManager.carrierFrequency "5.890e9 Hz"
param *.connectionManager.drawMaxIntfDist false
param *.connectionManager.maxInterfDist 2600m
param *.connectionManager.pMax 20mW
param *.connectionManager.sat -89dBm
param *.connectionManager.sendDirect true
param *.manager.autoShutdown true
param *.manager.host "\"localhost\""
param *.manager.launchConfig "xmldoc(\"osm.launchd.xml\")"
param *.manager.margin 25
param *.manager.moduleDisplayString "\"\""
param *.manager.moduleName "\"node\""
param *.manager.moduleType "\"org.car2x.veins.nodes.Car\""
param *.manager.port 9999
param *.manager.updateInterval 1s
param *.node[*].appl.beaconInterval "0.1 s"
param *.node[*].appl.beaconLengthBits "3960 bit"
param *.node[*].appl.beaconPriority 3
param *.node[*].appl.dataLengthBits "3960 bit"
param *.node[*].appl.dataOnSch false
param *.node[*].appl.dataPriority 2
param *.node[*].appl.debug false
param *.node[*].appl.headerLength "80 bit"
param *.node[*].appl.maxOffset "0.005 s"
param *.node[*].appl.sendBeacons true
param *.node[*].appl.sendData false
param *.node[*].applType "\"TraCIDemo11p\""
param *.node[*].mobilityType "\"TraCIMobility\""
param *.node[*].mobilityType.debug true
param *.node[*].veinsmobility.x 0
param *.node[*].veinsmobility.y 0
param *.node[*].veinsmobility.z 1.895
param *.node[*].veinsmobilityType "\"org.car2x.veins.modules.mobility.traci.TraCIMobility\""
param *.node[*].veinsmobilityType.debug true
param *.obstacles.debug false
param *.playgroundSizeX 2000m
param *.playgroundSizeY 2000m
param *.playgroundSizeZ 50m
param *.world.use2D false
param *.world.useTorus false

scalar . 	cwmax 	2048
scalar . 	cwmin 	32
scalar . 	slotlength 	10
scalar . 	txPower 	1258.93
scalar RSUExampleScenario2.node[6].nic.mac1609_4 	TotalLostPackets 	0
scalar RSUExampleScenario2.node[6].nic.mac1609_4 	delayMedio 	0.00078493944
scalar RSUExampleScenario2.node[6].nic.mac1609_4 	throughputMedioBPS 	5218236.9619438
scalar RSUExampleScenario2.node[5].nic.mac1609_4 	TotalLostPackets 	1
scalar RSUExampleScenario2.node[5].nic.mac1609_4 	delayMedio 	0.004172949528
scalar RSUExampleScenario2.node[5].nic.mac1609_4 	throughputMedioBPS 	981559.91880556
scalar RSUExampleScenario2.node[0].nic.mac1609_4 	TotalLostPackets 	2
scalar RSUExampleScenario2.node[0].nic.mac1609_4 	delayMedio 	0.004153003996
scalar RSUExampleScenario2.node[0].nic.mac1609_4 	throughputMedioBPS 	986274.03286951
scalar RSUExampleScenario2.node[14].nic.mac1609_4 	TotalLostPackets 	4
scalar RSUExampleScenario2.node[14].nic.mac1609_4 	delayMedio 	0.00570627184
scalar RSUExampleScenario2.node[14].nic.mac1609_4 	throughputMedioBPS 	717806.67223819
scalar RSUExampleScenario2.node[7].nic.mac1609_4 	TotalLostPackets 	5
scalar RSUExampleScenario2.node[7].nic.mac1609_4 	delayMedio 	0.004842260021
scalar RSUExampleScenario2.node[7].nic.mac1609_4 	throughputMedioBPS 	845886.00826003
scalar RSUExampleScenario2.node[2].nic.mac1609_4 	TotalLostPackets 	5
scalar RSUExampleScenario2.node[2].nic.mac1609_4 	delayMedio 	0.004469696204
scalar RSUExampleScenario2.node[2].nic.mac1609_4 	throughputMedioBPS 	916393.3772362
scalar RSUExampleScenario2.node[8].nic.mac1609_4 	TotalLostPackets 	5
scalar RSUExampleScenario2.node[8].nic.mac1609_4 	delayMedio 	0.004610135729
scalar RSUExampleScenario2.node[8].nic.mac1609_4 	throughputMedioBPS 	888477.09500655
scalar RSUExampleScenario2.node[3].nic.mac1609_4 	TotalLostPackets 	3
scalar RSUExampleScenario2.node[3].nic.mac1609_4 	delayMedio 	0.003993055549
scalar RSUExampleScenario2.node[3].nic.mac1609_4 	throughputMedioBPS 	1025780.8712117
scalar RSUExampleScenario2.node[11].nic.mac1609_4 	TotalLostPackets 	6
scalar RSUExampleScenario2.node[11].nic.mac1609_4 	delayMedio 	0.004367536665
scalar RSUExampleScenario2.node[11].nic.mac1609_4 	throughputMedioBPS 	937828.41772693
scalar RSUExampleScenario2.node[17].nic.mac1609_4 	TotalLostPackets 	2
scalar RSUExampleScenario2.node[17].nic.mac1609_4 	delayMedio 	0.002966380097
scalar RSUExampleScenario2.node[17].nic.mac1609_4 	throughputMedioBPS 	1380807.5387107
scalar RSUExampleScenario2.node[27].nic.mac1609_4 	TotalLostPackets 	3
scalar RSUExampleScenario2.node[27].nic.mac1609_4 	delayMedio 	0.004787146208
scalar RSUExampleScenario2.node[27].nic.mac1609_4 	throughputMedioBPS 	855624.58766493
scalar RSUExampleScenario2.node[12].nic.mac1609_4 	TotalLostPackets 	6
scalar RSUExampleScenario2.node[12].nic.mac1609_4 	delayMedio 	0.004369445326
scalar RSUExampleScenario2.node[12].nic.mac1609_4 	throughputMedioBPS 	937418.75555025
scalar RSUExampleScenario2.node[18].nic.mac1609_4 	TotalLostPackets 	4
scalar RSUExampleScenario2.node[18].nic.mac1609_4 	delayMedio 	0.002795495917
scalar RSUExampleScenario2.node[18].nic.mac1609_4 	throughputMedioBPS 	1465214.0877956
scalar RSUExampleScenario2.node[22].nic.mac1609_4 	TotalLostPackets 	3
scalar RSUExampleScenario2.node[22].nic.mac1609_4 	delayMedio 	0.003421802731
scalar RSUExampleScenario2.node[22].nic.mac1609_4 	throughputMedioBPS 	1197029.8471285
scalar RSUExampleScenario2.node[28].nic.mac1609_4 	TotalLostPackets 	2
scalar RSUExampleScenario2.node[28].nic.mac1609_4 	delayMedio 	0.004779034167
scalar RSUExampleScenario2.node[28].nic.mac1609_4 	throughputMedioBPS 	857076.94412066
scalar RSUExampleScenario2.node[33].nic.mac1609_4 	TotalLostPackets 	0
scalar RSUExampleScenario2.node[33].nic.mac1609_4 	delayMedio 	0.000824619049
scalar RSUExampleScenario2.node[33].nic.mac1609_4 	throughputMedioBPS 	4967142.1066693
scalar RSUExampleScenario2.node[1].nic.mac1609_4 	TotalLostPackets 	3
scalar RSUExampleScenario2.node[1].nic.mac1609_4 	delayMedio 	0.003988678666
scalar RSUExampleScenario2.node[1].nic.mac1609_4 	throughputMedioBPS 	1026906.4879481
scalar RSUExampleScenario2.node[29].nic.mac1609_4 	TotalLostPackets 	3
scalar RSUExampleScenario2.node[29].nic.mac1609_4 	delayMedio 	0.005116748214
scalar RSUExampleScenario2.node[29].nic.mac1609_4 	throughputMedioBPS 	800508.41450344
scalar RSUExampleScenario2.node[34].nic.mac1609_4 	TotalLostPackets 	0
scalar RSUExampleScenario2.node[34].nic.mac1609_4 	delayMedio 	0.000813733848
scalar RSUExampleScenario2.node[34].nic.mac1609_4 	throughputMedioBPS 	5033586.8526521
scalar RSUExampleScenario2.node[9].nic.mac1609_4 	TotalLostPackets 	5
scalar RSUExampleScenario2.node[9].nic.mac1609_4 	delayMedio 	0.004212265482
scalar RSUExampleScenario2.node[9].nic.mac1609_4 	throughputMedioBPS 	972398.34887873
scalar RSUExampleScenario2.node[15].nic.mac1609_4 	TotalLostPackets 	4
scalar RSUExampleScenario2.node[15].nic.mac1609_4 	delayMedio 	0.004772182711
scalar RSUExampleScenario2.node[15].nic.mac1609_4 	throughputMedioBPS 	858307.45548062
scalar RSUExampleScenario2.node[20].nic.mac1609_4 	TotalLostPackets 	2
scalar RSUExampleScenario2.node[20].nic.mac1609_4 	delayMedio 	0.003418075835
scalar RSUExampleScenario2.node[20].nic.mac1609_4 	throughputMedioBPS 	1198335.0275295
scalar RSUExampleScenario2.node[23].nic.mac1609_4 	TotalLostPackets 	2
scalar RSUExampleScenario2.node[23].nic.mac1609_4 	delayMedio 	0.003416462739
scalar RSUExampleScenario2.node[23].nic.mac1609_4 	throughputMedioBPS 	1198900.8260098
scalar RSUExampleScenario2.node[25].nic.mac1609_4 	TotalLostPackets 	3
scalar RSUExampleScenario2.node[25].nic.mac1609_4 	delayMedio 	0.003912112501
scalar RSUExampleScenario2.node[25].nic.mac1609_4 	throughputMedioBPS 	1047004.6551817
scalar RSUExampleScenario2.node[4].nic.mac1609_4 	TotalLostPackets 	3
scalar RSUExampleScenario2.node[4].nic.mac1609_4 	delayMedio 	0.004034883314
scalar RSUExampleScenario2.node[4].nic.mac1609_4 	throughputMedioBPS 	1015147.0763936
scalar RSUExampleScenario2.node[19].nic.mac1609_4 	TotalLostPackets 	3
scalar RSUExampleScenario2.node[19].nic.mac1609_4 	delayMedio 	0.002980519179
scalar RSUExampleScenario2.node[19].nic.mac1609_4 	throughputMedioBPS 	1374257.2197429
scalar RSUExampleScenario2.node[21].nic.mac1609_4 	TotalLostPackets 	3
scalar RSUExampleScenario2.node[21].nic.mac1609_4 	delayMedio 	0.003155985979
scalar RSUExampleScenario2.node[21].nic.mac1609_4 	throughputMedioBPS 	1297851.1399765
scalar RSUExampleScenario2.node[24].nic.mac1609_4 	TotalLostPackets 	2
scalar RSUExampleScenario2.node[24].nic.mac1609_4 	delayMedio 	0.003989149848
scalar RSUExampleScenario2.node[24].nic.mac1609_4 	throughputMedioBPS 	1026785.1937975
scalar RSUExampleScenario2.node[26].nic.mac1609_4 	TotalLostPackets 	2
scalar RSUExampleScenario2.node[26].nic.mac1609_4 	delayMedio 	0.004160760048
scalar RSUExampleScenario2.node[26].nic.mac1609_4 	throughputMedioBPS 	984435.52435665
scalar RSUExampleScenario2.node[30].nic.mac1609_4 	TotalLostPackets 	3
scalar RSUExampleScenario2.node[30].nic.mac1609_4 	delayMedio 	0.004764824143
scalar RSUExampleScenario2.node[30].nic.mac1609_4 	throughputMedioBPS 	859632.98471036
scalar RSUExampleScenario2.node[31].nic.mac1609_4 	TotalLostPackets 	3
scalar RSUExampleScenario2.node[31].nic.mac1609_4 	delayMedio 	0.006280365412
scalar RSUExampleScenario2.node[31].nic.mac1609_4 	throughputMedioBPS 	652191.35054255
scalar RSUExampleScenario2.node[32].nic.mac1609_4 	TotalLostPackets 	0
scalar RSUExampleScenario2.node[32].nic.mac1609_4 	delayMedio 	0.00082283555
scalar RSUExampleScenario2.node[32].nic.mac1609_4 	throughputMedioBPS 	4977908.4073091
scalar RSUExampleScenario2.node[35].nic.mac1609_4 	TotalLostPackets 	0
scalar RSUExampleScenario2.node[35].nic.mac1609_4 	delayMedio 	0.000821699824
scalar RSUExampleScenario2.node[35].nic.mac1609_4 	throughputMedioBPS 	4984788.7041657
scalar RSUExampleScenario2.node[10].nic.mac1609_4 	TotalLostPackets 	5
scalar RSUExampleScenario2.node[10].nic.mac1609_4 	delayMedio 	0.004279383837
scalar RSUExampleScenario2.node[10].nic.mac1609_4 	throughputMedioBPS 	957147.13979231
scalar RSUExampleScenario2.node[13].nic.mac1609_4 	TotalLostPackets 	6
scalar RSUExampleScenario2.node[13].nic.mac1609_4 	delayMedio 	0.004485504778
scalar RSUExampleScenario2.node[13].nic.mac1609_4 	throughputMedioBPS 	913163.66890523
scalar RSUExampleScenario2.node[16].nic.mac1609_4 	TotalLostPackets 	5
scalar RSUExampleScenario2.node[16].nic.mac1609_4 	delayMedio 	0.00265552487
scalar RSUExampleScenario2.node[16].nic.mac1609_4 	throughputMedioBPS 	1542444.6015487
