version 2
run v1-1047-20171203-22:01:13-8763
attr configname v1
attr cwmax 2048
attr cwmin 32
attr datetime 20171203-22:01:13
attr experiment v1
attr inifile omnetpp.ini
attr iterationvars "$cwmin=32, $cwmax=2048, $slotlength=5, $txPower=100"
attr iterationvars2 "$cwmin=32, $cwmax=2048, $slotlength=5, $txPower=100, $repetition=0"
attr measurement "$cwmin=32, $cwmax=2048, $slotlength=5, $txPower=100"
attr network RSUExampleScenario2
attr processid 8763
attr repetition 0
attr replication #0
attr resultdir results
attr runnumber 1047
attr seedset 1047
attr slotlength 5
attr txPower 100
param **.coreDebug true
param **.debug true
param *.**.nic.mac1609_4.bitrate 6Mbps
param *.**.nic.mac1609_4.cwmax_ "${cwmax=1024, 2048, 4096}"
param *.**.nic.mac1609_4.cwmin_ "${cwmin=16, 32, 64}"
param *.**.nic.mac1609_4.slotlength_ "${slotlength=5..100 step 5}ms"
param *.**.nic.mac1609_4.txPower "${txPower=1.26, 2.51, 3.98, 10, 15.85, 25.12, 50.12, 100, 251.19, 501.19, 794.33, 1258.93, 1584.89}mW"
param *.**.nic.mac1609_4.useServiceChannel false
param *.**.nic.phy80211p.analogueModels "xmldoc(\"config.xml\")"
param *.**.nic.phy80211p.decider "xmldoc(\"config.xml\")"
param *.**.nic.phy80211p.sensitivity -89dBm
param *.**.nic.phy80211p.thermalNoise -110dBm
param *.**.nic.phy80211p.usePropagationDelay true
param *.**.nic.phy80211p.useThermalNoise true
param *.annotations.draw false
param *.connectionManager.alpha 2.0
param *.connectionManager.carrierFrequency "5.890e9 Hz"
param *.connectionManager.drawMaxIntfDist false
param *.connectionManager.maxInterfDist 2600m
param *.connectionManager.pMax 20mW
param *.connectionManager.sat -89dBm
param *.connectionManager.sendDirect true
param *.manager.autoShutdown true
param *.manager.host "\"localhost\""
param *.manager.launchConfig "xmldoc(\"osm.launchd.xml\")"
param *.manager.margin 25
param *.manager.moduleDisplayString "\"\""
param *.manager.moduleName "\"node\""
param *.manager.moduleType "\"org.car2x.veins.nodes.Car\""
param *.manager.port 9999
param *.manager.updateInterval 1s
param *.node[*].appl.beaconInterval "0.1 s"
param *.node[*].appl.beaconLengthBits "3960 bit"
param *.node[*].appl.beaconPriority 3
param *.node[*].appl.dataLengthBits "3960 bit"
param *.node[*].appl.dataOnSch false
param *.node[*].appl.dataPriority 2
param *.node[*].appl.debug false
param *.node[*].appl.headerLength "80 bit"
param *.node[*].appl.maxOffset "0.005 s"
param *.node[*].appl.sendBeacons true
param *.node[*].appl.sendData false
param *.node[*].applType "\"TraCIDemo11p\""
param *.node[*].mobilityType "\"TraCIMobility\""
param *.node[*].mobilityType.debug true
param *.node[*].veinsmobility.x 0
param *.node[*].veinsmobility.y 0
param *.node[*].veinsmobility.z 1.895
param *.node[*].veinsmobilityType "\"org.car2x.veins.modules.mobility.traci.TraCIMobility\""
param *.node[*].veinsmobilityType.debug true
param *.obstacles.debug false
param *.playgroundSizeX 2000m
param *.playgroundSizeY 2000m
param *.playgroundSizeZ 50m
param *.world.use2D false
param *.world.useTorus false

scalar . 	cwmax 	2048
scalar . 	cwmin 	32
scalar . 	slotlength 	5
scalar . 	txPower 	100
scalar RSUExampleScenario2.node[6].nic.mac1609_4 	TotalLostPackets 	0
scalar RSUExampleScenario2.node[6].nic.mac1609_4 	delayMedio 	0.000744980257
scalar RSUExampleScenario2.node[6].nic.mac1609_4 	throughputMedioBPS 	5498132.2846714
scalar RSUExampleScenario2.node[5].nic.mac1609_4 	TotalLostPackets 	2
scalar RSUExampleScenario2.node[5].nic.mac1609_4 	delayMedio 	0.005399362248
scalar RSUExampleScenario2.node[5].nic.mac1609_4 	throughputMedioBPS 	758608.11182843
scalar RSUExampleScenario2.node[0].nic.mac1609_4 	TotalLostPackets 	2
scalar RSUExampleScenario2.node[0].nic.mac1609_4 	delayMedio 	0.005274410809
scalar RSUExampleScenario2.node[0].nic.mac1609_4 	throughputMedioBPS 	776579.6311066
scalar RSUExampleScenario2.node[14].nic.mac1609_4 	TotalLostPackets 	243
scalar RSUExampleScenario2.node[14].nic.mac1609_4 	delayMedio 	0.008723543998
scalar RSUExampleScenario2.node[14].nic.mac1609_4 	throughputMedioBPS 	469533.9418108
scalar RSUExampleScenario2.node[7].nic.mac1609_4 	TotalLostPackets 	263
scalar RSUExampleScenario2.node[7].nic.mac1609_4 	delayMedio 	0.008388873797
scalar RSUExampleScenario2.node[7].nic.mac1609_4 	throughputMedioBPS 	488265.77904811
scalar RSUExampleScenario2.node[2].nic.mac1609_4 	TotalLostPackets 	504
scalar RSUExampleScenario2.node[2].nic.mac1609_4 	delayMedio 	0.008390529651
scalar RSUExampleScenario2.node[2].nic.mac1609_4 	throughputMedioBPS 	488169.42080492
scalar RSUExampleScenario2.node[8].nic.mac1609_4 	TotalLostPackets 	503
scalar RSUExampleScenario2.node[8].nic.mac1609_4 	delayMedio 	0.008964918693
scalar RSUExampleScenario2.node[8].nic.mac1609_4 	throughputMedioBPS 	456892.0410942
scalar RSUExampleScenario2.node[3].nic.mac1609_4 	TotalLostPackets 	626
scalar RSUExampleScenario2.node[3].nic.mac1609_4 	delayMedio 	0.007458045655
scalar RSUExampleScenario2.node[3].nic.mac1609_4 	throughputMedioBPS 	549205.54116759
scalar RSUExampleScenario2.node[11].nic.mac1609_4 	TotalLostPackets 	616
scalar RSUExampleScenario2.node[11].nic.mac1609_4 	delayMedio 	0.008215627198
scalar RSUExampleScenario2.node[11].nic.mac1609_4 	throughputMedioBPS 	498562.05754856
scalar RSUExampleScenario2.node[17].nic.mac1609_4 	TotalLostPackets 	573
scalar RSUExampleScenario2.node[17].nic.mac1609_4 	delayMedio 	0.005865810433
scalar RSUExampleScenario2.node[17].nic.mac1609_4 	throughputMedioBPS 	698283.73199696
scalar RSUExampleScenario2.node[27].nic.mac1609_4 	TotalLostPackets 	480
scalar RSUExampleScenario2.node[27].nic.mac1609_4 	delayMedio 	0.012182853855
scalar RSUExampleScenario2.node[27].nic.mac1609_4 	throughputMedioBPS 	336210.22205396
scalar RSUExampleScenario2.node[12].nic.mac1609_4 	TotalLostPackets 	610
scalar RSUExampleScenario2.node[12].nic.mac1609_4 	delayMedio 	0.00820092766
scalar RSUExampleScenario2.node[12].nic.mac1609_4 	throughputMedioBPS 	499455.69207306
scalar RSUExampleScenario2.node[18].nic.mac1609_4 	TotalLostPackets 	823
scalar RSUExampleScenario2.node[18].nic.mac1609_4 	delayMedio 	0.006444696542
scalar RSUExampleScenario2.node[18].nic.mac1609_4 	throughputMedioBPS 	635561.34467157
scalar RSUExampleScenario2.node[22].nic.mac1609_4 	TotalLostPackets 	689
scalar RSUExampleScenario2.node[22].nic.mac1609_4 	delayMedio 	0.008153558335
scalar RSUExampleScenario2.node[22].nic.mac1609_4 	throughputMedioBPS 	502357.35509691
scalar RSUExampleScenario2.node[28].nic.mac1609_4 	TotalLostPackets 	720
scalar RSUExampleScenario2.node[28].nic.mac1609_4 	delayMedio 	0.012510343689
scalar RSUExampleScenario2.node[28].nic.mac1609_4 	throughputMedioBPS 	327409.07058209
scalar RSUExampleScenario2.node[33].nic.mac1609_4 	TotalLostPackets 	290
scalar RSUExampleScenario2.node[33].nic.mac1609_4 	delayMedio 	0.000803325458
scalar RSUExampleScenario2.node[33].nic.mac1609_4 	throughputMedioBPS 	5098805.17511
scalar RSUExampleScenario2.node[1].nic.mac1609_4 	TotalLostPackets 	595
scalar RSUExampleScenario2.node[1].nic.mac1609_4 	delayMedio 	0.007376264349
scalar RSUExampleScenario2.node[1].nic.mac1609_4 	throughputMedioBPS 	555294.63238767
scalar RSUExampleScenario2.node[29].nic.mac1609_4 	TotalLostPackets 	458
scalar RSUExampleScenario2.node[29].nic.mac1609_4 	delayMedio 	0.012337937124
scalar RSUExampleScenario2.node[29].nic.mac1609_4 	throughputMedioBPS 	331984.18494209
scalar RSUExampleScenario2.node[34].nic.mac1609_4 	TotalLostPackets 	240
scalar RSUExampleScenario2.node[34].nic.mac1609_4 	delayMedio 	0.000776791426
scalar RSUExampleScenario2.node[34].nic.mac1609_4 	throughputMedioBPS 	5272972.7232359
scalar RSUExampleScenario2.node[9].nic.mac1609_4 	TotalLostPackets 	563
scalar RSUExampleScenario2.node[9].nic.mac1609_4 	delayMedio 	0.007846380456
scalar RSUExampleScenario2.node[9].nic.mac1609_4 	throughputMedioBPS 	522024.13879009
scalar RSUExampleScenario2.node[15].nic.mac1609_4 	TotalLostPackets 	593
scalar RSUExampleScenario2.node[15].nic.mac1609_4 	delayMedio 	0.008900663077
scalar RSUExampleScenario2.node[15].nic.mac1609_4 	throughputMedioBPS 	460190.43352457
scalar RSUExampleScenario2.node[20].nic.mac1609_4 	TotalLostPackets 	460
scalar RSUExampleScenario2.node[20].nic.mac1609_4 	delayMedio 	0.00642266018
scalar RSUExampleScenario2.node[20].nic.mac1609_4 	throughputMedioBPS 	637741.9768755
scalar RSUExampleScenario2.node[23].nic.mac1609_4 	TotalLostPackets 	822
scalar RSUExampleScenario2.node[23].nic.mac1609_4 	delayMedio 	0.0082566371
scalar RSUExampleScenario2.node[23].nic.mac1609_4 	throughputMedioBPS 	496085.7490068
scalar RSUExampleScenario2.node[25].nic.mac1609_4 	TotalLostPackets 	673
scalar RSUExampleScenario2.node[25].nic.mac1609_4 	delayMedio 	0.009719035579
scalar RSUExampleScenario2.node[25].nic.mac1609_4 	throughputMedioBPS 	421440.99244144
scalar RSUExampleScenario2.node[4].nic.mac1609_4 	TotalLostPackets 	636
scalar RSUExampleScenario2.node[4].nic.mac1609_4 	delayMedio 	0.007492521792
scalar RSUExampleScenario2.node[4].nic.mac1609_4 	throughputMedioBPS 	546678.42333518
scalar RSUExampleScenario2.node[19].nic.mac1609_4 	TotalLostPackets 	594
scalar RSUExampleScenario2.node[19].nic.mac1609_4 	delayMedio 	0.006919562397
scalar RSUExampleScenario2.node[19].nic.mac1609_4 	throughputMedioBPS 	591944.94752142
scalar RSUExampleScenario2.node[21].nic.mac1609_4 	TotalLostPackets 	613
scalar RSUExampleScenario2.node[21].nic.mac1609_4 	delayMedio 	0.007367936499
scalar RSUExampleScenario2.node[21].nic.mac1609_4 	throughputMedioBPS 	555922.27221726
scalar RSUExampleScenario2.node[24].nic.mac1609_4 	TotalLostPackets 	460
scalar RSUExampleScenario2.node[24].nic.mac1609_4 	delayMedio 	0.00787798338
scalar RSUExampleScenario2.node[24].nic.mac1609_4 	throughputMedioBPS 	519930.01286263
scalar RSUExampleScenario2.node[26].nic.mac1609_4 	TotalLostPackets 	794
scalar RSUExampleScenario2.node[26].nic.mac1609_4 	delayMedio 	0.010642418665
scalar RSUExampleScenario2.node[26].nic.mac1609_4 	throughputMedioBPS 	384874.91696295
scalar RSUExampleScenario2.node[30].nic.mac1609_4 	TotalLostPackets 	683
scalar RSUExampleScenario2.node[30].nic.mac1609_4 	delayMedio 	0.012730337268
scalar RSUExampleScenario2.node[30].nic.mac1609_4 	throughputMedioBPS 	321751.09847604
scalar RSUExampleScenario2.node[31].nic.mac1609_4 	TotalLostPackets 	362
scalar RSUExampleScenario2.node[31].nic.mac1609_4 	delayMedio 	0.014022832401
scalar RSUExampleScenario2.node[31].nic.mac1609_4 	throughputMedioBPS 	292095.05489259
scalar RSUExampleScenario2.node[32].nic.mac1609_4 	TotalLostPackets 	448
scalar RSUExampleScenario2.node[32].nic.mac1609_4 	delayMedio 	0.006742989282
scalar RSUExampleScenario2.node[32].nic.mac1609_4 	throughputMedioBPS 	607445.7230266
scalar RSUExampleScenario2.node[35].nic.mac1609_4 	TotalLostPackets 	120
scalar RSUExampleScenario2.node[35].nic.mac1609_4 	delayMedio 	0.000800207398
scalar RSUExampleScenario2.node[35].nic.mac1609_4 	throughputMedioBPS 	5118672.9996247
scalar RSUExampleScenario2.node[10].nic.mac1609_4 	TotalLostPackets 	646
scalar RSUExampleScenario2.node[10].nic.mac1609_4 	delayMedio 	0.008059188895
scalar RSUExampleScenario2.node[10].nic.mac1609_4 	throughputMedioBPS 	508239.73151751
scalar RSUExampleScenario2.node[13].nic.mac1609_4 	TotalLostPackets 	610
scalar RSUExampleScenario2.node[13].nic.mac1609_4 	delayMedio 	0.008456123889
scalar RSUExampleScenario2.node[13].nic.mac1609_4 	throughputMedioBPS 	484382.68568509
scalar RSUExampleScenario2.node[16].nic.mac1609_4 	TotalLostPackets 	628
scalar RSUExampleScenario2.node[16].nic.mac1609_4 	delayMedio 	0.006651005781
scalar RSUExampleScenario2.node[16].nic.mac1609_4 	throughputMedioBPS 	615846.70574354
