version 2
run v1-1272-20171204-15:19:51-8763
attr configname v1
attr cwmax 2048
attr cwmin 32
attr datetime 20171204-15:19:51
attr experiment v1
attr inifile omnetpp.ini
attr iterationvars "$cwmin=32, $cwmax=2048, $slotlength=90, $txPower=1258.93"
attr iterationvars2 "$cwmin=32, $cwmax=2048, $slotlength=90, $txPower=1258.93, $repetition=0"
attr measurement "$cwmin=32, $cwmax=2048, $slotlength=90, $txPower=1258.93"
attr network RSUExampleScenario2
attr processid 8763
attr repetition 0
attr replication #0
attr resultdir results
attr runnumber 1272
attr seedset 1272
attr slotlength 90
attr txPower 1258.93
param **.coreDebug true
param **.debug true
param *.**.nic.mac1609_4.bitrate 6Mbps
param *.**.nic.mac1609_4.cwmax_ "${cwmax=1024, 2048, 4096}"
param *.**.nic.mac1609_4.cwmin_ "${cwmin=16, 32, 64}"
param *.**.nic.mac1609_4.slotlength_ "${slotlength=5..100 step 5}ms"
param *.**.nic.mac1609_4.txPower "${txPower=1.26, 2.51, 3.98, 10, 15.85, 25.12, 50.12, 100, 251.19, 501.19, 794.33, 1258.93, 1584.89}mW"
param *.**.nic.mac1609_4.useServiceChannel false
param *.**.nic.phy80211p.analogueModels "xmldoc(\"config.xml\")"
param *.**.nic.phy80211p.decider "xmldoc(\"config.xml\")"
param *.**.nic.phy80211p.sensitivity -89dBm
param *.**.nic.phy80211p.thermalNoise -110dBm
param *.**.nic.phy80211p.usePropagationDelay true
param *.**.nic.phy80211p.useThermalNoise true
param *.annotations.draw false
param *.connectionManager.alpha 2.0
param *.connectionManager.carrierFrequency "5.890e9 Hz"
param *.connectionManager.drawMaxIntfDist false
param *.connectionManager.maxInterfDist 2600m
param *.connectionManager.pMax 20mW
param *.connectionManager.sat -89dBm
param *.connectionManager.sendDirect true
param *.manager.autoShutdown true
param *.manager.host "\"localhost\""
param *.manager.launchConfig "xmldoc(\"osm.launchd.xml\")"
param *.manager.margin 25
param *.manager.moduleDisplayString "\"\""
param *.manager.moduleName "\"node\""
param *.manager.moduleType "\"org.car2x.veins.nodes.Car\""
param *.manager.port 9999
param *.manager.updateInterval 1s
param *.node[*].appl.beaconInterval "0.1 s"
param *.node[*].appl.beaconLengthBits "3960 bit"
param *.node[*].appl.beaconPriority 3
param *.node[*].appl.dataLengthBits "3960 bit"
param *.node[*].appl.dataOnSch false
param *.node[*].appl.dataPriority 2
param *.node[*].appl.debug false
param *.node[*].appl.headerLength "80 bit"
param *.node[*].appl.maxOffset "0.005 s"
param *.node[*].appl.sendBeacons true
param *.node[*].appl.sendData false
param *.node[*].applType "\"TraCIDemo11p\""
param *.node[*].mobilityType "\"TraCIMobility\""
param *.node[*].mobilityType.debug true
param *.node[*].veinsmobility.x 0
param *.node[*].veinsmobility.y 0
param *.node[*].veinsmobility.z 1.895
param *.node[*].veinsmobilityType "\"org.car2x.veins.modules.mobility.traci.TraCIMobility\""
param *.node[*].veinsmobilityType.debug true
param *.obstacles.debug false
param *.playgroundSizeX 2000m
param *.playgroundSizeY 2000m
param *.playgroundSizeZ 50m
param *.world.use2D false
param *.world.useTorus false

scalar . 	cwmax 	2048
scalar . 	cwmin 	32
scalar . 	slotlength 	90
scalar . 	txPower 	1258.93
scalar RSUExampleScenario2.node[6].nic.mac1609_4 	TotalLostPackets 	0
scalar RSUExampleScenario2.node[6].nic.mac1609_4 	delayMedio 	0.00072326115
scalar RSUExampleScenario2.node[6].nic.mac1609_4 	throughputMedioBPS 	5663237.9575155
scalar RSUExampleScenario2.node[5].nic.mac1609_4 	TotalLostPackets 	0
scalar RSUExampleScenario2.node[5].nic.mac1609_4 	delayMedio 	0.00557829625
scalar RSUExampleScenario2.node[5].nic.mac1609_4 	throughputMedioBPS 	734274.37638747
scalar RSUExampleScenario2.node[0].nic.mac1609_4 	TotalLostPackets 	0
scalar RSUExampleScenario2.node[0].nic.mac1609_4 	delayMedio 	0.005429536722
scalar RSUExampleScenario2.node[0].nic.mac1609_4 	throughputMedioBPS 	754392.17188004
scalar RSUExampleScenario2.node[14].nic.mac1609_4 	TotalLostPackets 	5
scalar RSUExampleScenario2.node[14].nic.mac1609_4 	delayMedio 	0.007708478808
scalar RSUExampleScenario2.node[14].nic.mac1609_4 	throughputMedioBPS 	531362.94487915
scalar RSUExampleScenario2.node[7].nic.mac1609_4 	TotalLostPackets 	5
scalar RSUExampleScenario2.node[7].nic.mac1609_4 	delayMedio 	0.006468085707
scalar RSUExampleScenario2.node[7].nic.mac1609_4 	throughputMedioBPS 	633263.09908531
scalar RSUExampleScenario2.node[2].nic.mac1609_4 	TotalLostPackets 	5
scalar RSUExampleScenario2.node[2].nic.mac1609_4 	delayMedio 	0.006172422494
scalar RSUExampleScenario2.node[2].nic.mac1609_4 	throughputMedioBPS 	663596.8299338
scalar RSUExampleScenario2.node[8].nic.mac1609_4 	TotalLostPackets 	5
scalar RSUExampleScenario2.node[8].nic.mac1609_4 	delayMedio 	0.006367025534
scalar RSUExampleScenario2.node[8].nic.mac1609_4 	throughputMedioBPS 	643314.5238638
scalar RSUExampleScenario2.node[3].nic.mac1609_4 	TotalLostPackets 	4
scalar RSUExampleScenario2.node[3].nic.mac1609_4 	delayMedio 	0.005746144516
scalar RSUExampleScenario2.node[3].nic.mac1609_4 	throughputMedioBPS 	712825.78933162
scalar RSUExampleScenario2.node[11].nic.mac1609_4 	TotalLostPackets 	4
scalar RSUExampleScenario2.node[11].nic.mac1609_4 	delayMedio 	0.006300607729
scalar RSUExampleScenario2.node[11].nic.mac1609_4 	throughputMedioBPS 	650096.01873349
scalar RSUExampleScenario2.node[17].nic.mac1609_4 	TotalLostPackets 	5
scalar RSUExampleScenario2.node[17].nic.mac1609_4 	delayMedio 	0.003885001528
scalar RSUExampleScenario2.node[17].nic.mac1609_4 	throughputMedioBPS 	1054311.0397121
scalar RSUExampleScenario2.node[27].nic.mac1609_4 	TotalLostPackets 	5
scalar RSUExampleScenario2.node[27].nic.mac1609_4 	delayMedio 	0.00665254813
scalar RSUExampleScenario2.node[27].nic.mac1609_4 	throughputMedioBPS 	615703.925773
scalar RSUExampleScenario2.node[12].nic.mac1609_4 	TotalLostPackets 	4
scalar RSUExampleScenario2.node[12].nic.mac1609_4 	delayMedio 	0.006296793276
scalar RSUExampleScenario2.node[12].nic.mac1609_4 	throughputMedioBPS 	650489.83194959
scalar RSUExampleScenario2.node[18].nic.mac1609_4 	TotalLostPackets 	6
scalar RSUExampleScenario2.node[18].nic.mac1609_4 	delayMedio 	0.00371923942
scalar RSUExampleScenario2.node[18].nic.mac1609_4 	throughputMedioBPS 	1101300.4372747
scalar RSUExampleScenario2.node[22].nic.mac1609_4 	TotalLostPackets 	3
scalar RSUExampleScenario2.node[22].nic.mac1609_4 	delayMedio 	0.005484717072
scalar RSUExampleScenario2.node[22].nic.mac1609_4 	throughputMedioBPS 	746802.42322733
scalar RSUExampleScenario2.node[28].nic.mac1609_4 	TotalLostPackets 	4
scalar RSUExampleScenario2.node[28].nic.mac1609_4 	delayMedio 	0.007289792273
scalar RSUExampleScenario2.node[28].nic.mac1609_4 	throughputMedioBPS 	561881.57993588
scalar RSUExampleScenario2.node[33].nic.mac1609_4 	TotalLostPackets 	0
scalar RSUExampleScenario2.node[33].nic.mac1609_4 	delayMedio 	0.000784900546
scalar RSUExampleScenario2.node[33].nic.mac1609_4 	throughputMedioBPS 	5218495.5426441
scalar RSUExampleScenario2.node[1].nic.mac1609_4 	TotalLostPackets 	3
scalar RSUExampleScenario2.node[1].nic.mac1609_4 	delayMedio 	0.005705310877
scalar RSUExampleScenario2.node[1].nic.mac1609_4 	throughputMedioBPS 	717927.57457121
scalar RSUExampleScenario2.node[29].nic.mac1609_4 	TotalLostPackets 	6
scalar RSUExampleScenario2.node[29].nic.mac1609_4 	delayMedio 	0.006649274784
scalar RSUExampleScenario2.node[29].nic.mac1609_4 	throughputMedioBPS 	616007.02825686
scalar RSUExampleScenario2.node[34].nic.mac1609_4 	TotalLostPackets 	0
scalar RSUExampleScenario2.node[34].nic.mac1609_4 	delayMedio 	0.000784033491
scalar RSUExampleScenario2.node[34].nic.mac1609_4 	throughputMedioBPS 	5224266.6265866
scalar RSUExampleScenario2.node[9].nic.mac1609_4 	TotalLostPackets 	6
scalar RSUExampleScenario2.node[9].nic.mac1609_4 	delayMedio 	0.005775074749
scalar RSUExampleScenario2.node[9].nic.mac1609_4 	throughputMedioBPS 	709254.88894307
scalar RSUExampleScenario2.node[15].nic.mac1609_4 	TotalLostPackets 	4
scalar RSUExampleScenario2.node[15].nic.mac1609_4 	delayMedio 	0.006540765096
scalar RSUExampleScenario2.node[15].nic.mac1609_4 	throughputMedioBPS 	626226.43374226
scalar RSUExampleScenario2.node[20].nic.mac1609_4 	TotalLostPackets 	5
scalar RSUExampleScenario2.node[20].nic.mac1609_4 	delayMedio 	0.004435658305
scalar RSUExampleScenario2.node[20].nic.mac1609_4 	throughputMedioBPS 	923425.50262531
scalar RSUExampleScenario2.node[23].nic.mac1609_4 	TotalLostPackets 	5
scalar RSUExampleScenario2.node[23].nic.mac1609_4 	delayMedio 	0.004629790345
scalar RSUExampleScenario2.node[23].nic.mac1609_4 	throughputMedioBPS 	884705.28788678
scalar RSUExampleScenario2.node[25].nic.mac1609_4 	TotalLostPackets 	6
scalar RSUExampleScenario2.node[25].nic.mac1609_4 	delayMedio 	0.00534239499
scalar RSUExampleScenario2.node[25].nic.mac1609_4 	throughputMedioBPS 	766697.33472503
scalar RSUExampleScenario2.node[4].nic.mac1609_4 	TotalLostPackets 	4
scalar RSUExampleScenario2.node[4].nic.mac1609_4 	delayMedio 	0.00578688436
scalar RSUExampleScenario2.node[4].nic.mac1609_4 	throughputMedioBPS 	707807.47379599
scalar RSUExampleScenario2.node[19].nic.mac1609_4 	TotalLostPackets 	4
scalar RSUExampleScenario2.node[19].nic.mac1609_4 	delayMedio 	0.004355605518
scalar RSUExampleScenario2.node[19].nic.mac1609_4 	throughputMedioBPS 	940397.37592914
scalar RSUExampleScenario2.node[21].nic.mac1609_4 	TotalLostPackets 	6
scalar RSUExampleScenario2.node[21].nic.mac1609_4 	delayMedio 	0.004250087323
scalar RSUExampleScenario2.node[21].nic.mac1609_4 	throughputMedioBPS 	963744.90429068
scalar RSUExampleScenario2.node[24].nic.mac1609_4 	TotalLostPackets 	5
scalar RSUExampleScenario2.node[24].nic.mac1609_4 	delayMedio 	0.005358755089
scalar RSUExampleScenario2.node[24].nic.mac1609_4 	throughputMedioBPS 	764356.63359518
scalar RSUExampleScenario2.node[26].nic.mac1609_4 	TotalLostPackets 	3
scalar RSUExampleScenario2.node[26].nic.mac1609_4 	delayMedio 	0.006289509799
scalar RSUExampleScenario2.node[26].nic.mac1609_4 	throughputMedioBPS 	651243.12237698
scalar RSUExampleScenario2.node[30].nic.mac1609_4 	TotalLostPackets 	6
scalar RSUExampleScenario2.node[30].nic.mac1609_4 	delayMedio 	0.006624541654
scalar RSUExampleScenario2.node[30].nic.mac1609_4 	throughputMedioBPS 	618306.92806862
scalar RSUExampleScenario2.node[31].nic.mac1609_4 	TotalLostPackets 	6
scalar RSUExampleScenario2.node[31].nic.mac1609_4 	delayMedio 	0.008216582357
scalar RSUExampleScenario2.node[31].nic.mac1609_4 	throughputMedioBPS 	498504.10086168
scalar RSUExampleScenario2.node[32].nic.mac1609_4 	TotalLostPackets 	0
scalar RSUExampleScenario2.node[32].nic.mac1609_4 	delayMedio 	0.000791525239
scalar RSUExampleScenario2.node[32].nic.mac1609_4 	throughputMedioBPS 	5174819.1967267
scalar RSUExampleScenario2.node[35].nic.mac1609_4 	TotalLostPackets 	0
scalar RSUExampleScenario2.node[35].nic.mac1609_4 	delayMedio 	0.000782630907
scalar RSUExampleScenario2.node[35].nic.mac1609_4 	throughputMedioBPS 	5233629.239385
scalar RSUExampleScenario2.node[10].nic.mac1609_4 	TotalLostPackets 	6
scalar RSUExampleScenario2.node[10].nic.mac1609_4 	delayMedio 	0.005868816601
scalar RSUExampleScenario2.node[10].nic.mac1609_4 	throughputMedioBPS 	697926.05199372
scalar RSUExampleScenario2.node[13].nic.mac1609_4 	TotalLostPackets 	4
scalar RSUExampleScenario2.node[13].nic.mac1609_4 	delayMedio 	0.006469712903
scalar RSUExampleScenario2.node[13].nic.mac1609_4 	throughputMedioBPS 	633103.82721852
scalar RSUExampleScenario2.node[16].nic.mac1609_4 	TotalLostPackets 	6
scalar RSUExampleScenario2.node[16].nic.mac1609_4 	delayMedio 	0.004163354302
scalar RSUExampleScenario2.node[16].nic.mac1609_4 	throughputMedioBPS 	983822.1065386
