version 2
run v1-1545-20171205-12:14:00-8763
attr configname v1
attr cwmax 4096
attr cwmin 32
attr datetime 20171205-12:14:00
attr experiment v1
attr inifile omnetpp.ini
attr iterationvars "$cwmin=32, $cwmax=4096, $slotlength=95, $txPower=1258.93"
attr iterationvars2 "$cwmin=32, $cwmax=4096, $slotlength=95, $txPower=1258.93, $repetition=0"
attr measurement "$cwmin=32, $cwmax=4096, $slotlength=95, $txPower=1258.93"
attr network RSUExampleScenario2
attr processid 8763
attr repetition 0
attr replication #0
attr resultdir results
attr runnumber 1545
attr seedset 1545
attr slotlength 95
attr txPower 1258.93
param **.coreDebug true
param **.debug true
param *.**.nic.mac1609_4.bitrate 6Mbps
param *.**.nic.mac1609_4.cwmax_ "${cwmax=1024, 2048, 4096}"
param *.**.nic.mac1609_4.cwmin_ "${cwmin=16, 32, 64}"
param *.**.nic.mac1609_4.slotlength_ "${slotlength=5..100 step 5}ms"
param *.**.nic.mac1609_4.txPower "${txPower=1.26, 2.51, 3.98, 10, 15.85, 25.12, 50.12, 100, 251.19, 501.19, 794.33, 1258.93, 1584.89}mW"
param *.**.nic.mac1609_4.useServiceChannel false
param *.**.nic.phy80211p.analogueModels "xmldoc(\"config.xml\")"
param *.**.nic.phy80211p.decider "xmldoc(\"config.xml\")"
param *.**.nic.phy80211p.sensitivity -89dBm
param *.**.nic.phy80211p.thermalNoise -110dBm
param *.**.nic.phy80211p.usePropagationDelay true
param *.**.nic.phy80211p.useThermalNoise true
param *.annotations.draw false
param *.connectionManager.alpha 2.0
param *.connectionManager.carrierFrequency "5.890e9 Hz"
param *.connectionManager.drawMaxIntfDist false
param *.connectionManager.maxInterfDist 2600m
param *.connectionManager.pMax 20mW
param *.connectionManager.sat -89dBm
param *.connectionManager.sendDirect true
param *.manager.autoShutdown true
param *.manager.host "\"localhost\""
param *.manager.launchConfig "xmldoc(\"osm.launchd.xml\")"
param *.manager.margin 25
param *.manager.moduleDisplayString "\"\""
param *.manager.moduleName "\"node\""
param *.manager.moduleType "\"org.car2x.veins.nodes.Car\""
param *.manager.port 9999
param *.manager.updateInterval 1s
param *.node[*].appl.beaconInterval "0.1 s"
param *.node[*].appl.beaconLengthBits "3960 bit"
param *.node[*].appl.beaconPriority 3
param *.node[*].appl.dataLengthBits "3960 bit"
param *.node[*].appl.dataOnSch false
param *.node[*].appl.dataPriority 2
param *.node[*].appl.debug false
param *.node[*].appl.headerLength "80 bit"
param *.node[*].appl.maxOffset "0.005 s"
param *.node[*].appl.sendBeacons true
param *.node[*].appl.sendData false
param *.node[*].applType "\"TraCIDemo11p\""
param *.node[*].mobilityType "\"TraCIMobility\""
param *.node[*].mobilityType.debug true
param *.node[*].veinsmobility.x 0
param *.node[*].veinsmobility.y 0
param *.node[*].veinsmobility.z 1.895
param *.node[*].veinsmobilityType "\"org.car2x.veins.modules.mobility.traci.TraCIMobility\""
param *.node[*].veinsmobilityType.debug true
param *.obstacles.debug false
param *.playgroundSizeX 2000m
param *.playgroundSizeY 2000m
param *.playgroundSizeZ 50m
param *.world.use2D false
param *.world.useTorus false

scalar . 	cwmax 	4096
scalar . 	cwmin 	32
scalar . 	slotlength 	95
scalar . 	txPower 	1258.93
scalar RSUExampleScenario2.node[6].nic.mac1609_4 	TotalLostPackets 	0
scalar RSUExampleScenario2.node[6].nic.mac1609_4 	delayMedio 	0.00079519423
scalar RSUExampleScenario2.node[6].nic.mac1609_4 	throughputMedioBPS 	5150942.8098739
scalar RSUExampleScenario2.node[5].nic.mac1609_4 	TotalLostPackets 	2
scalar RSUExampleScenario2.node[5].nic.mac1609_4 	delayMedio 	0.005697400574
scalar RSUExampleScenario2.node[5].nic.mac1609_4 	throughputMedioBPS 	718924.34919023
scalar RSUExampleScenario2.node[0].nic.mac1609_4 	TotalLostPackets 	4
scalar RSUExampleScenario2.node[0].nic.mac1609_4 	delayMedio 	0.00528377723
scalar RSUExampleScenario2.node[0].nic.mac1609_4 	throughputMedioBPS 	775203.00755244
scalar RSUExampleScenario2.node[14].nic.mac1609_4 	TotalLostPackets 	246
scalar RSUExampleScenario2.node[14].nic.mac1609_4 	delayMedio 	0.006659642206
scalar RSUExampleScenario2.node[14].nic.mac1609_4 	throughputMedioBPS 	615048.0571152
scalar RSUExampleScenario2.node[7].nic.mac1609_4 	TotalLostPackets 	285
scalar RSUExampleScenario2.node[7].nic.mac1609_4 	delayMedio 	0.005624571804
scalar RSUExampleScenario2.node[7].nic.mac1609_4 	throughputMedioBPS 	728233.21365427
scalar RSUExampleScenario2.node[2].nic.mac1609_4 	TotalLostPackets 	306
scalar RSUExampleScenario2.node[2].nic.mac1609_4 	delayMedio 	0.005372733934
scalar RSUExampleScenario2.node[2].nic.mac1609_4 	throughputMedioBPS 	762367.92110541
scalar RSUExampleScenario2.node[8].nic.mac1609_4 	TotalLostPackets 	303
scalar RSUExampleScenario2.node[8].nic.mac1609_4 	delayMedio 	0.005534261761
scalar RSUExampleScenario2.node[8].nic.mac1609_4 	throughputMedioBPS 	740116.78108332
scalar RSUExampleScenario2.node[3].nic.mac1609_4 	TotalLostPackets 	543
scalar RSUExampleScenario2.node[3].nic.mac1609_4 	delayMedio 	0.004968059523
scalar RSUExampleScenario2.node[3].nic.mac1609_4 	throughputMedioBPS 	824466.77243463
scalar RSUExampleScenario2.node[11].nic.mac1609_4 	TotalLostPackets 	475
scalar RSUExampleScenario2.node[11].nic.mac1609_4 	delayMedio 	0.005256383855
scalar RSUExampleScenario2.node[11].nic.mac1609_4 	throughputMedioBPS 	779242.93833614
scalar RSUExampleScenario2.node[17].nic.mac1609_4 	TotalLostPackets 	542
scalar RSUExampleScenario2.node[17].nic.mac1609_4 	delayMedio 	0.003078783012
scalar RSUExampleScenario2.node[17].nic.mac1609_4 	throughputMedioBPS 	1330395.8038424
scalar RSUExampleScenario2.node[27].nic.mac1609_4 	TotalLostPackets 	542
scalar RSUExampleScenario2.node[27].nic.mac1609_4 	delayMedio 	0.005529916686
scalar RSUExampleScenario2.node[27].nic.mac1609_4 	throughputMedioBPS 	740698.32013029
scalar RSUExampleScenario2.node[12].nic.mac1609_4 	TotalLostPackets 	360
scalar RSUExampleScenario2.node[12].nic.mac1609_4 	delayMedio 	0.005243881038
scalar RSUExampleScenario2.node[12].nic.mac1609_4 	throughputMedioBPS 	781100.86214517
scalar RSUExampleScenario2.node[18].nic.mac1609_4 	TotalLostPackets 	503
scalar RSUExampleScenario2.node[18].nic.mac1609_4 	delayMedio 	0.003070101038
scalar RSUExampleScenario2.node[18].nic.mac1609_4 	throughputMedioBPS 	1334158.0455394
scalar RSUExampleScenario2.node[22].nic.mac1609_4 	TotalLostPackets 	524
scalar RSUExampleScenario2.node[22].nic.mac1609_4 	delayMedio 	0.003799282641
scalar RSUExampleScenario2.node[22].nic.mac1609_4 	throughputMedioBPS 	1078098.2588232
scalar RSUExampleScenario2.node[28].nic.mac1609_4 	TotalLostPackets 	541
scalar RSUExampleScenario2.node[28].nic.mac1609_4 	delayMedio 	0.005531310115
scalar RSUExampleScenario2.node[28].nic.mac1609_4 	throughputMedioBPS 	740511.72597436
scalar RSUExampleScenario2.node[33].nic.mac1609_4 	TotalLostPackets 	160
scalar RSUExampleScenario2.node[33].nic.mac1609_4 	delayMedio 	0.00079343958
scalar RSUExampleScenario2.node[33].nic.mac1609_4 	throughputMedioBPS 	5162333.8462162
scalar RSUExampleScenario2.node[1].nic.mac1609_4 	TotalLostPackets 	543
scalar RSUExampleScenario2.node[1].nic.mac1609_4 	delayMedio 	0.004940020881
scalar RSUExampleScenario2.node[1].nic.mac1609_4 	throughputMedioBPS 	829146.29280493
scalar RSUExampleScenario2.node[29].nic.mac1609_4 	TotalLostPackets 	542
scalar RSUExampleScenario2.node[29].nic.mac1609_4 	delayMedio 	0.005526155476
scalar RSUExampleScenario2.node[29].nic.mac1609_4 	throughputMedioBPS 	741202.45403766
scalar RSUExampleScenario2.node[34].nic.mac1609_4 	TotalLostPackets 	240
scalar RSUExampleScenario2.node[34].nic.mac1609_4 	delayMedio 	0.000795280947
scalar RSUExampleScenario2.node[34].nic.mac1609_4 	throughputMedioBPS 	5150381.1544478
scalar RSUExampleScenario2.node[9].nic.mac1609_4 	TotalLostPackets 	545
scalar RSUExampleScenario2.node[9].nic.mac1609_4 	delayMedio 	0.005087725217
scalar RSUExampleScenario2.node[9].nic.mac1609_4 	throughputMedioBPS 	805074.92551568
scalar RSUExampleScenario2.node[15].nic.mac1609_4 	TotalLostPackets 	404
scalar RSUExampleScenario2.node[15].nic.mac1609_4 	delayMedio 	0.00542542794
scalar RSUExampleScenario2.node[15].nic.mac1609_4 	throughputMedioBPS 	754963.4877659
scalar RSUExampleScenario2.node[20].nic.mac1609_4 	TotalLostPackets 	542
scalar RSUExampleScenario2.node[20].nic.mac1609_4 	delayMedio 	0.003571703927
scalar RSUExampleScenario2.node[20].nic.mac1609_4 	throughputMedioBPS 	1146791.5827136
scalar RSUExampleScenario2.node[23].nic.mac1609_4 	TotalLostPackets 	541
scalar RSUExampleScenario2.node[23].nic.mac1609_4 	delayMedio 	0.003807748631
scalar RSUExampleScenario2.node[23].nic.mac1609_4 	throughputMedioBPS 	1075701.2599419
scalar RSUExampleScenario2.node[25].nic.mac1609_4 	TotalLostPackets 	542
scalar RSUExampleScenario2.node[25].nic.mac1609_4 	delayMedio 	0.004394897696
scalar RSUExampleScenario2.node[25].nic.mac1609_4 	throughputMedioBPS 	931989.83992087
scalar RSUExampleScenario2.node[4].nic.mac1609_4 	TotalLostPackets 	543
scalar RSUExampleScenario2.node[4].nic.mac1609_4 	delayMedio 	0.004977441942
scalar RSUExampleScenario2.node[4].nic.mac1609_4 	throughputMedioBPS 	822912.66238761
scalar RSUExampleScenario2.node[19].nic.mac1609_4 	TotalLostPackets 	312
scalar RSUExampleScenario2.node[19].nic.mac1609_4 	delayMedio 	0.003217587275
scalar RSUExampleScenario2.node[19].nic.mac1609_4 	throughputMedioBPS 	1273003.5425953
scalar RSUExampleScenario2.node[21].nic.mac1609_4 	TotalLostPackets 	541
scalar RSUExampleScenario2.node[21].nic.mac1609_4 	delayMedio 	0.003520440919
scalar RSUExampleScenario2.node[21].nic.mac1609_4 	throughputMedioBPS 	1163490.6235639
scalar RSUExampleScenario2.node[24].nic.mac1609_4 	TotalLostPackets 	542
scalar RSUExampleScenario2.node[24].nic.mac1609_4 	delayMedio 	0.004224345615
scalar RSUExampleScenario2.node[24].nic.mac1609_4 	throughputMedioBPS 	969617.63397808
scalar RSUExampleScenario2.node[26].nic.mac1609_4 	TotalLostPackets 	542
scalar RSUExampleScenario2.node[26].nic.mac1609_4 	delayMedio 	0.004755056816
scalar RSUExampleScenario2.node[26].nic.mac1609_4 	throughputMedioBPS 	861398.75047274
scalar RSUExampleScenario2.node[30].nic.mac1609_4 	TotalLostPackets 	542
scalar RSUExampleScenario2.node[30].nic.mac1609_4 	delayMedio 	0.0055120625
scalar RSUExampleScenario2.node[30].nic.mac1609_4 	throughputMedioBPS 	743097.52479855
scalar RSUExampleScenario2.node[31].nic.mac1609_4 	TotalLostPackets 	442
scalar RSUExampleScenario2.node[31].nic.mac1609_4 	delayMedio 	0.006800613372
scalar RSUExampleScenario2.node[31].nic.mac1609_4 	throughputMedioBPS 	602298.61277585
scalar RSUExampleScenario2.node[32].nic.mac1609_4 	TotalLostPackets 	340
scalar RSUExampleScenario2.node[32].nic.mac1609_4 	delayMedio 	0.000811603002
scalar RSUExampleScenario2.node[32].nic.mac1609_4 	throughputMedioBPS 	5046802.4262482
scalar RSUExampleScenario2.node[35].nic.mac1609_4 	TotalLostPackets 	90
scalar RSUExampleScenario2.node[35].nic.mac1609_4 	delayMedio 	0.00079381608
scalar RSUExampleScenario2.node[35].nic.mac1609_4 	throughputMedioBPS 	5159885.3998638
scalar RSUExampleScenario2.node[10].nic.mac1609_4 	TotalLostPackets 	546
scalar RSUExampleScenario2.node[10].nic.mac1609_4 	delayMedio 	0.005185275383
scalar RSUExampleScenario2.node[10].nic.mac1609_4 	throughputMedioBPS 	789929.1161005
scalar RSUExampleScenario2.node[13].nic.mac1609_4 	TotalLostPackets 	316
scalar RSUExampleScenario2.node[13].nic.mac1609_4 	delayMedio 	0.005367514246
scalar RSUExampleScenario2.node[13].nic.mac1609_4 	throughputMedioBPS 	763109.29272566
scalar RSUExampleScenario2.node[16].nic.mac1609_4 	TotalLostPackets 	542
scalar RSUExampleScenario2.node[16].nic.mac1609_4 	delayMedio 	0.003428115262
scalar RSUExampleScenario2.node[16].nic.mac1609_4 	throughputMedioBPS 	1194825.6364774
