version 2
run v1-972-20171203-16:19:25-8763
attr configname v1
attr cwmax 1024
attr cwmin 32
attr datetime 20171203-16:19:25
attr experiment v1
attr inifile omnetpp.ini
attr iterationvars "$cwmin=32, $cwmax=1024, $slotlength=75, $txPower=794.33"
attr iterationvars2 "$cwmin=32, $cwmax=1024, $slotlength=75, $txPower=794.33, $repetition=0"
attr measurement "$cwmin=32, $cwmax=1024, $slotlength=75, $txPower=794.33"
attr network RSUExampleScenario2
attr processid 8763
attr repetition 0
attr replication #0
attr resultdir results
attr runnumber 972
attr seedset 972
attr slotlength 75
attr txPower 794.33
param **.coreDebug true
param **.debug true
param *.**.nic.mac1609_4.bitrate 6Mbps
param *.**.nic.mac1609_4.cwmax_ "${cwmax=1024, 2048, 4096}"
param *.**.nic.mac1609_4.cwmin_ "${cwmin=16, 32, 64}"
param *.**.nic.mac1609_4.slotlength_ "${slotlength=5..100 step 5}ms"
param *.**.nic.mac1609_4.txPower "${txPower=1.26, 2.51, 3.98, 10, 15.85, 25.12, 50.12, 100, 251.19, 501.19, 794.33, 1258.93, 1584.89}mW"
param *.**.nic.mac1609_4.useServiceChannel false
param *.**.nic.phy80211p.analogueModels "xmldoc(\"config.xml\")"
param *.**.nic.phy80211p.decider "xmldoc(\"config.xml\")"
param *.**.nic.phy80211p.sensitivity -89dBm
param *.**.nic.phy80211p.thermalNoise -110dBm
param *.**.nic.phy80211p.usePropagationDelay true
param *.**.nic.phy80211p.useThermalNoise true
param *.annotations.draw false
param *.connectionManager.alpha 2.0
param *.connectionManager.carrierFrequency "5.890e9 Hz"
param *.connectionManager.drawMaxIntfDist false
param *.connectionManager.maxInterfDist 2600m
param *.connectionManager.pMax 20mW
param *.connectionManager.sat -89dBm
param *.connectionManager.sendDirect true
param *.manager.autoShutdown true
param *.manager.host "\"localhost\""
param *.manager.launchConfig "xmldoc(\"osm.launchd.xml\")"
param *.manager.margin 25
param *.manager.moduleDisplayString "\"\""
param *.manager.moduleName "\"node\""
param *.manager.moduleType "\"org.car2x.veins.nodes.Car\""
param *.manager.port 9999
param *.manager.updateInterval 1s
param *.node[*].appl.beaconInterval "0.1 s"
param *.node[*].appl.beaconLengthBits "3960 bit"
param *.node[*].appl.beaconPriority 3
param *.node[*].appl.dataLengthBits "3960 bit"
param *.node[*].appl.dataOnSch false
param *.node[*].appl.dataPriority 2
param *.node[*].appl.debug false
param *.node[*].appl.headerLength "80 bit"
param *.node[*].appl.maxOffset "0.005 s"
param *.node[*].appl.sendBeacons true
param *.node[*].appl.sendData false
param *.node[*].applType "\"TraCIDemo11p\""
param *.node[*].mobilityType "\"TraCIMobility\""
param *.node[*].mobilityType.debug true
param *.node[*].veinsmobility.x 0
param *.node[*].veinsmobility.y 0
param *.node[*].veinsmobility.z 1.895
param *.node[*].veinsmobilityType "\"org.car2x.veins.modules.mobility.traci.TraCIMobility\""
param *.node[*].veinsmobilityType.debug true
param *.obstacles.debug false
param *.playgroundSizeX 2000m
param *.playgroundSizeY 2000m
param *.playgroundSizeZ 50m
param *.world.use2D false
param *.world.useTorus false

scalar . 	cwmax 	1024
scalar . 	cwmin 	32
scalar . 	slotlength 	75
scalar . 	txPower 	794.33
scalar RSUExampleScenario2.node[6].nic.mac1609_4 	TotalLostPackets 	0
scalar RSUExampleScenario2.node[6].nic.mac1609_4 	delayMedio 	0.000800366842
scalar RSUExampleScenario2.node[6].nic.mac1609_4 	throughputMedioBPS 	5117653.287291
scalar RSUExampleScenario2.node[5].nic.mac1609_4 	TotalLostPackets 	3
scalar RSUExampleScenario2.node[5].nic.mac1609_4 	delayMedio 	0.004285883834
scalar RSUExampleScenario2.node[5].nic.mac1609_4 	throughputMedioBPS 	955695.5248084
scalar RSUExampleScenario2.node[0].nic.mac1609_4 	TotalLostPackets 	4
scalar RSUExampleScenario2.node[0].nic.mac1609_4 	delayMedio 	0.004246064299
scalar RSUExampleScenario2.node[0].nic.mac1609_4 	throughputMedioBPS 	964658.02473794
scalar RSUExampleScenario2.node[14].nic.mac1609_4 	TotalLostPackets 	4
scalar RSUExampleScenario2.node[14].nic.mac1609_4 	delayMedio 	0.00596121875
scalar RSUExampleScenario2.node[14].nic.mac1609_4 	throughputMedioBPS 	687107.81668791
scalar RSUExampleScenario2.node[7].nic.mac1609_4 	TotalLostPackets 	2
scalar RSUExampleScenario2.node[7].nic.mac1609_4 	delayMedio 	0.005033542362
scalar RSUExampleScenario2.node[7].nic.mac1609_4 	throughputMedioBPS 	813741.04076618
scalar RSUExampleScenario2.node[2].nic.mac1609_4 	TotalLostPackets 	4
scalar RSUExampleScenario2.node[2].nic.mac1609_4 	delayMedio 	0.00482872243
scalar RSUExampleScenario2.node[2].nic.mac1609_4 	throughputMedioBPS 	848257.49656067
scalar RSUExampleScenario2.node[8].nic.mac1609_4 	TotalLostPackets 	4
scalar RSUExampleScenario2.node[8].nic.mac1609_4 	delayMedio 	0.004936558218
scalar RSUExampleScenario2.node[8].nic.mac1609_4 	throughputMedioBPS 	829727.8830192
scalar RSUExampleScenario2.node[3].nic.mac1609_4 	TotalLostPackets 	3
scalar RSUExampleScenario2.node[3].nic.mac1609_4 	delayMedio 	0.004298774281
scalar RSUExampleScenario2.node[3].nic.mac1609_4 	throughputMedioBPS 	952829.74447368
scalar RSUExampleScenario2.node[11].nic.mac1609_4 	TotalLostPackets 	2
scalar RSUExampleScenario2.node[11].nic.mac1609_4 	delayMedio 	0.004697953367
scalar RSUExampleScenario2.node[11].nic.mac1609_4 	throughputMedioBPS 	871869.02037951
scalar RSUExampleScenario2.node[17].nic.mac1609_4 	TotalLostPackets 	0
scalar RSUExampleScenario2.node[17].nic.mac1609_4 	delayMedio 	0.003146432535
scalar RSUExampleScenario2.node[17].nic.mac1609_4 	throughputMedioBPS 	1301791.7768475
scalar RSUExampleScenario2.node[27].nic.mac1609_4 	TotalLostPackets 	0
scalar RSUExampleScenario2.node[27].nic.mac1609_4 	delayMedio 	0.005445031513
scalar RSUExampleScenario2.node[27].nic.mac1609_4 	throughputMedioBPS 	752245.41680738
scalar RSUExampleScenario2.node[12].nic.mac1609_4 	TotalLostPackets 	3
scalar RSUExampleScenario2.node[12].nic.mac1609_4 	delayMedio 	0.004702618464
scalar RSUExampleScenario2.node[12].nic.mac1609_4 	throughputMedioBPS 	871004.10782916
scalar RSUExampleScenario2.node[18].nic.mac1609_4 	TotalLostPackets 	0
scalar RSUExampleScenario2.node[18].nic.mac1609_4 	delayMedio 	0.00315396231
scalar RSUExampleScenario2.node[18].nic.mac1609_4 	throughputMedioBPS 	1298683.8768157
scalar RSUExampleScenario2.node[22].nic.mac1609_4 	TotalLostPackets 	0
scalar RSUExampleScenario2.node[22].nic.mac1609_4 	delayMedio 	0.00382310853
scalar RSUExampleScenario2.node[22].nic.mac1609_4 	throughputMedioBPS 	1071379.4724683
scalar RSUExampleScenario2.node[28].nic.mac1609_4 	TotalLostPackets 	0
scalar RSUExampleScenario2.node[28].nic.mac1609_4 	delayMedio 	0.005449888723
scalar RSUExampleScenario2.node[28].nic.mac1609_4 	throughputMedioBPS 	751574.97854174
scalar RSUExampleScenario2.node[33].nic.mac1609_4 	TotalLostPackets 	0
scalar RSUExampleScenario2.node[33].nic.mac1609_4 	delayMedio 	0.000792019214
scalar RSUExampleScenario2.node[33].nic.mac1609_4 	throughputMedioBPS 	5171591.7115031
scalar RSUExampleScenario2.node[1].nic.mac1609_4 	TotalLostPackets 	3
scalar RSUExampleScenario2.node[1].nic.mac1609_4 	delayMedio 	0.004293691351
scalar RSUExampleScenario2.node[1].nic.mac1609_4 	throughputMedioBPS 	953957.71738955
scalar RSUExampleScenario2.node[29].nic.mac1609_4 	TotalLostPackets 	0
scalar RSUExampleScenario2.node[29].nic.mac1609_4 	delayMedio 	0.005433987222
scalar RSUExampleScenario2.node[29].nic.mac1609_4 	throughputMedioBPS 	753774.31576969
scalar RSUExampleScenario2.node[34].nic.mac1609_4 	TotalLostPackets 	0
scalar RSUExampleScenario2.node[34].nic.mac1609_4 	delayMedio 	0.0007911517
scalar RSUExampleScenario2.node[34].nic.mac1609_4 	throughputMedioBPS 	5177262.4668939
scalar RSUExampleScenario2.node[9].nic.mac1609_4 	TotalLostPackets 	4
scalar RSUExampleScenario2.node[9].nic.mac1609_4 	delayMedio 	0.004531833138
scalar RSUExampleScenario2.node[9].nic.mac1609_4 	throughputMedioBPS 	903828.51154756
scalar RSUExampleScenario2.node[15].nic.mac1609_4 	TotalLostPackets 	3
scalar RSUExampleScenario2.node[15].nic.mac1609_4 	delayMedio 	0.00512681709
scalar RSUExampleScenario2.node[15].nic.mac1609_4 	throughputMedioBPS 	798936.24597308
scalar RSUExampleScenario2.node[20].nic.mac1609_4 	TotalLostPackets 	0
scalar RSUExampleScenario2.node[20].nic.mac1609_4 	delayMedio 	0.003621063994
scalar RSUExampleScenario2.node[20].nic.mac1609_4 	throughputMedioBPS 	1131159.2414043
scalar RSUExampleScenario2.node[23].nic.mac1609_4 	TotalLostPackets 	0
scalar RSUExampleScenario2.node[23].nic.mac1609_4 	delayMedio 	0.003862185075
scalar RSUExampleScenario2.node[23].nic.mac1609_4 	throughputMedioBPS 	1060539.5444075
scalar RSUExampleScenario2.node[25].nic.mac1609_4 	TotalLostPackets 	0
scalar RSUExampleScenario2.node[25].nic.mac1609_4 	delayMedio 	0.004422134984
scalar RSUExampleScenario2.node[25].nic.mac1609_4 	throughputMedioBPS 	926249.42818155
scalar RSUExampleScenario2.node[4].nic.mac1609_4 	TotalLostPackets 	3
scalar RSUExampleScenario2.node[4].nic.mac1609_4 	delayMedio 	0.004340847882
scalar RSUExampleScenario2.node[4].nic.mac1609_4 	throughputMedioBPS 	943594.45687755
scalar RSUExampleScenario2.node[19].nic.mac1609_4 	TotalLostPackets 	0
scalar RSUExampleScenario2.node[19].nic.mac1609_4 	delayMedio 	0.003349373593
scalar RSUExampleScenario2.node[19].nic.mac1609_4 	throughputMedioBPS 	1222915.2366123
scalar RSUExampleScenario2.node[21].nic.mac1609_4 	TotalLostPackets 	0
scalar RSUExampleScenario2.node[21].nic.mac1609_4 	delayMedio 	0.003575626019
scalar RSUExampleScenario2.node[21].nic.mac1609_4 	throughputMedioBPS 	1145533.6712433
scalar RSUExampleScenario2.node[24].nic.mac1609_4 	TotalLostPackets 	0
scalar RSUExampleScenario2.node[24].nic.mac1609_4 	delayMedio 	0.004236539174
scalar RSUExampleScenario2.node[24].nic.mac1609_4 	throughputMedioBPS 	966826.89152677
scalar RSUExampleScenario2.node[26].nic.mac1609_4 	TotalLostPackets 	0
scalar RSUExampleScenario2.node[26].nic.mac1609_4 	delayMedio 	0.004721256063
scalar RSUExampleScenario2.node[26].nic.mac1609_4 	throughputMedioBPS 	867565.73786544
scalar RSUExampleScenario2.node[30].nic.mac1609_4 	TotalLostPackets 	0
scalar RSUExampleScenario2.node[30].nic.mac1609_4 	delayMedio 	0.005408892818
scalar RSUExampleScenario2.node[30].nic.mac1609_4 	throughputMedioBPS 	757271.43023506
scalar RSUExampleScenario2.node[31].nic.mac1609_4 	TotalLostPackets 	0
scalar RSUExampleScenario2.node[31].nic.mac1609_4 	delayMedio 	0.006691324621
scalar RSUExampleScenario2.node[31].nic.mac1609_4 	throughputMedioBPS 	612135.89711746
scalar RSUExampleScenario2.node[32].nic.mac1609_4 	TotalLostPackets 	0
scalar RSUExampleScenario2.node[32].nic.mac1609_4 	delayMedio 	0.000804388708
scalar RSUExampleScenario2.node[32].nic.mac1609_4 	throughputMedioBPS 	5092065.5127045
scalar RSUExampleScenario2.node[35].nic.mac1609_4 	TotalLostPackets 	0
scalar RSUExampleScenario2.node[35].nic.mac1609_4 	delayMedio 	0.000789490478
scalar RSUExampleScenario2.node[35].nic.mac1609_4 	throughputMedioBPS 	5188156.3007648
scalar RSUExampleScenario2.node[10].nic.mac1609_4 	TotalLostPackets 	4
scalar RSUExampleScenario2.node[10].nic.mac1609_4 	delayMedio 	0.004607470663
scalar RSUExampleScenario2.node[10].nic.mac1609_4 	throughputMedioBPS 	888991.010381
scalar RSUExampleScenario2.node[13].nic.mac1609_4 	TotalLostPackets 	2
scalar RSUExampleScenario2.node[13].nic.mac1609_4 	delayMedio 	0.004818441479
scalar RSUExampleScenario2.node[13].nic.mac1609_4 	throughputMedioBPS 	850067.39584843
scalar RSUExampleScenario2.node[16].nic.mac1609_4 	TotalLostPackets 	2
scalar RSUExampleScenario2.node[16].nic.mac1609_4 	delayMedio 	0.003021256279
scalar RSUExampleScenario2.node[16].nic.mac1609_4 	throughputMedioBPS 	1355727.4267231
