version 2
run v1-152-20171211-21:13:13-27625
attr configname v1
attr cwmax 1024
attr cwmin 512
attr datetime 20171211-21:13:13
attr experiment v1
attr inifile omnetpp.ini
attr iterationvars "$cwmin=512, $cwmax=1024, $slotlength=60, $txPower=501.19"
attr iterationvars2 "$cwmin=512, $cwmax=1024, $slotlength=60, $txPower=501.19, $repetition=0"
attr measurement "$cwmin=512, $cwmax=1024, $slotlength=60, $txPower=501.19"
attr network RSUExampleScenario2
attr processid 27625
attr repetition 0
attr replication #0
attr resultdir results
attr runnumber 152
attr seedset 152
attr slotlength 60
attr txPower 501.19
param **.coreDebug true
param **.debug true
param *.**.nic.mac1609_4.bitrate 6Mbps
param *.**.nic.mac1609_4.cwmax_ "${cwmax=1024, 2048, 4096}"
param *.**.nic.mac1609_4.cwmin_ ${cwmin=512}
param *.**.nic.mac1609_4.slotlength_ "${slotlength=5..100 step 5}ms"
param *.**.nic.mac1609_4.txPower "${txPower=1.26, 2.51, 3.98, 10, 15.85, 25.12, 50.12, 100, 251.19, 501.19, 794.33, 1258.93, 1584.89}mW"
param *.**.nic.mac1609_4.useServiceChannel false
param *.**.nic.phy80211p.analogueModels "xmldoc(\"config.xml\")"
param *.**.nic.phy80211p.decider "xmldoc(\"config.xml\")"
param *.**.nic.phy80211p.sensitivity -89dBm
param *.**.nic.phy80211p.thermalNoise -110dBm
param *.**.nic.phy80211p.usePropagationDelay true
param *.**.nic.phy80211p.useThermalNoise true
param *.annotations.draw false
param *.connectionManager.alpha 2.0
param *.connectionManager.carrierFrequency "5.890e9 Hz"
param *.connectionManager.drawMaxIntfDist false
param *.connectionManager.maxInterfDist 2600m
param *.connectionManager.pMax 20mW
param *.connectionManager.sat -89dBm
param *.connectionManager.sendDirect true
param *.manager.autoShutdown true
param *.manager.host "\"localhost\""
param *.manager.launchConfig "xmldoc(\"osm.launchd.xml\")"
param *.manager.margin 25
param *.manager.moduleDisplayString "\"\""
param *.manager.moduleName "\"node\""
param *.manager.moduleType "\"org.car2x.veins.nodes.Car\""
param *.manager.port 9999
param *.manager.updateInterval 1s
param *.node[*].appl.beaconInterval "0.1 s"
param *.node[*].appl.beaconLengthBits "3960 bit"
param *.node[*].appl.beaconPriority 3
param *.node[*].appl.dataLengthBits "3960 bit"
param *.node[*].appl.dataOnSch false
param *.node[*].appl.dataPriority 2
param *.node[*].appl.debug false
param *.node[*].appl.headerLength "80 bit"
param *.node[*].appl.maxOffset "0.005 s"
param *.node[*].appl.sendBeacons true
param *.node[*].appl.sendData false
param *.node[*].applType "\"TraCIDemo11p\""
param *.node[*].mobilityType "\"TraCIMobility\""
param *.node[*].mobilityType.debug true
param *.node[*].veinsmobility.x 0
param *.node[*].veinsmobility.y 0
param *.node[*].veinsmobility.z 1.895
param *.node[*].veinsmobilityType "\"org.car2x.veins.modules.mobility.traci.TraCIMobility\""
param *.node[*].veinsmobilityType.debug true
param *.obstacles.debug false
param *.playgroundSizeX 2000m
param *.playgroundSizeY 2000m
param *.playgroundSizeZ 50m
param *.world.use2D false
param *.world.useTorus false

scalar . 	cwmax 	1024
scalar . 	cwmin 	512
scalar . 	slotlength 	60
scalar . 	txPower 	501.19
scalar RSUExampleScenario2.node[6].nic.mac1609_4 	TotalLostPackets 	0
scalar RSUExampleScenario2.node[6].nic.mac1609_4 	delayMedio 	0.000725977303
scalar RSUExampleScenario2.node[6].nic.mac1609_4 	throughputMedioBPS 	5642049.6686155
scalar RSUExampleScenario2.node[5].nic.mac1609_4 	TotalLostPackets 	292
scalar RSUExampleScenario2.node[5].nic.mac1609_4 	delayMedio 	0.005877086653
scalar RSUExampleScenario2.node[5].nic.mac1609_4 	throughputMedioBPS 	696943.95235282
scalar RSUExampleScenario2.node[0].nic.mac1609_4 	TotalLostPackets 	319
scalar RSUExampleScenario2.node[0].nic.mac1609_4 	delayMedio 	0.005693285104
scalar RSUExampleScenario2.node[0].nic.mac1609_4 	throughputMedioBPS 	719444.03369874
scalar RSUExampleScenario2.node[14].nic.mac1609_4 	TotalLostPackets 	863
scalar RSUExampleScenario2.node[14].nic.mac1609_4 	delayMedio 	0.00696579912
scalar RSUExampleScenario2.node[14].nic.mac1609_4 	throughputMedioBPS 	588015.80830282
scalar RSUExampleScenario2.node[7].nic.mac1609_4 	TotalLostPackets 	526
scalar RSUExampleScenario2.node[7].nic.mac1609_4 	delayMedio 	0.00567496576
scalar RSUExampleScenario2.node[7].nic.mac1609_4 	throughputMedioBPS 	721766.46933639
scalar RSUExampleScenario2.node[2].nic.mac1609_4 	TotalLostPackets 	777
scalar RSUExampleScenario2.node[2].nic.mac1609_4 	delayMedio 	0.005476862061
scalar RSUExampleScenario2.node[2].nic.mac1609_4 	throughputMedioBPS 	747873.50023949
scalar RSUExampleScenario2.node[8].nic.mac1609_4 	TotalLostPackets 	922
scalar RSUExampleScenario2.node[8].nic.mac1609_4 	delayMedio 	0.005722312927
scalar RSUExampleScenario2.node[8].nic.mac1609_4 	throughputMedioBPS 	715794.47893403
scalar RSUExampleScenario2.node[3].nic.mac1609_4 	TotalLostPackets 	1083
scalar RSUExampleScenario2.node[3].nic.mac1609_4 	delayMedio 	0.004929259468
scalar RSUExampleScenario2.node[3].nic.mac1609_4 	throughputMedioBPS 	830956.46041765
scalar RSUExampleScenario2.node[11].nic.mac1609_4 	TotalLostPackets 	542
scalar RSUExampleScenario2.node[11].nic.mac1609_4 	delayMedio 	0.005273175289
scalar RSUExampleScenario2.node[11].nic.mac1609_4 	throughputMedioBPS 	776761.58586989
scalar RSUExampleScenario2.node[17].nic.mac1609_4 	TotalLostPackets 	541
scalar RSUExampleScenario2.node[17].nic.mac1609_4 	delayMedio 	0.002852444822
scalar RSUExampleScenario2.node[17].nic.mac1609_4 	throughputMedioBPS 	1435961.1685291
scalar RSUExampleScenario2.node[27].nic.mac1609_4 	TotalLostPackets 	412
scalar RSUExampleScenario2.node[27].nic.mac1609_4 	delayMedio 	0.004999640864
scalar RSUExampleScenario2.node[27].nic.mac1609_4 	throughputMedioBPS 	819258.84502153
scalar RSUExampleScenario2.node[12].nic.mac1609_4 	TotalLostPackets 	542
scalar RSUExampleScenario2.node[12].nic.mac1609_4 	delayMedio 	0.005240887824
scalar RSUExampleScenario2.node[12].nic.mac1609_4 	throughputMedioBPS 	781546.9702095
scalar RSUExampleScenario2.node[18].nic.mac1609_4 	TotalLostPackets 	661
scalar RSUExampleScenario2.node[18].nic.mac1609_4 	delayMedio 	0.003073506535
scalar RSUExampleScenario2.node[18].nic.mac1609_4 	throughputMedioBPS 	1332679.7757086
scalar RSUExampleScenario2.node[22].nic.mac1609_4 	TotalLostPackets 	580
scalar RSUExampleScenario2.node[22].nic.mac1609_4 	delayMedio 	0.003564189346
scalar RSUExampleScenario2.node[22].nic.mac1609_4 	throughputMedioBPS 	1149209.4282671
scalar RSUExampleScenario2.node[28].nic.mac1609_4 	TotalLostPackets 	315
scalar RSUExampleScenario2.node[28].nic.mac1609_4 	delayMedio 	0.004966639373
scalar RSUExampleScenario2.node[28].nic.mac1609_4 	throughputMedioBPS 	824702.51865851
scalar RSUExampleScenario2.node[33].nic.mac1609_4 	TotalLostPackets 	84
scalar RSUExampleScenario2.node[33].nic.mac1609_4 	delayMedio 	0.000766861976
scalar RSUExampleScenario2.node[33].nic.mac1609_4 	throughputMedioBPS 	5341248.0037606
scalar RSUExampleScenario2.node[1].nic.mac1609_4 	TotalLostPackets 	1083
scalar RSUExampleScenario2.node[1].nic.mac1609_4 	delayMedio 	0.004900412784
scalar RSUExampleScenario2.node[1].nic.mac1609_4 	throughputMedioBPS 	835847.95417458
scalar RSUExampleScenario2.node[29].nic.mac1609_4 	TotalLostPackets 	258
scalar RSUExampleScenario2.node[29].nic.mac1609_4 	delayMedio 	0.004925621855
scalar RSUExampleScenario2.node[29].nic.mac1609_4 	throughputMedioBPS 	831570.12878386
scalar RSUExampleScenario2.node[34].nic.mac1609_4 	TotalLostPackets 	151
scalar RSUExampleScenario2.node[34].nic.mac1609_4 	delayMedio 	0.000752005754
scalar RSUExampleScenario2.node[34].nic.mac1609_4 	throughputMedioBPS 	5446766.8353247
scalar RSUExampleScenario2.node[9].nic.mac1609_4 	TotalLostPackets 	982
scalar RSUExampleScenario2.node[9].nic.mac1609_4 	delayMedio 	0.005177303697
scalar RSUExampleScenario2.node[9].nic.mac1609_4 	throughputMedioBPS 	791145.3991203
scalar RSUExampleScenario2.node[15].nic.mac1609_4 	TotalLostPackets 	588
scalar RSUExampleScenario2.node[15].nic.mac1609_4 	delayMedio 	0.005445688314
scalar RSUExampleScenario2.node[15].nic.mac1609_4 	throughputMedioBPS 	752154.6890266
scalar RSUExampleScenario2.node[20].nic.mac1609_4 	TotalLostPackets 	832
scalar RSUExampleScenario2.node[20].nic.mac1609_4 	delayMedio 	0.003401004621
scalar RSUExampleScenario2.node[20].nic.mac1609_4 	throughputMedioBPS 	1204350.0250135
scalar RSUExampleScenario2.node[23].nic.mac1609_4 	TotalLostPackets 	761
scalar RSUExampleScenario2.node[23].nic.mac1609_4 	delayMedio 	0.003593896889
scalar RSUExampleScenario2.node[23].nic.mac1609_4 	throughputMedioBPS 	1139709.937718
scalar RSUExampleScenario2.node[25].nic.mac1609_4 	TotalLostPackets 	621
scalar RSUExampleScenario2.node[25].nic.mac1609_4 	delayMedio 	0.004109489822
scalar RSUExampleScenario2.node[25].nic.mac1609_4 	throughputMedioBPS 	996717.39731765
scalar RSUExampleScenario2.node[4].nic.mac1609_4 	TotalLostPackets 	1065
scalar RSUExampleScenario2.node[4].nic.mac1609_4 	delayMedio 	0.004936371452
scalar RSUExampleScenario2.node[4].nic.mac1609_4 	throughputMedioBPS 	829759.27558003
scalar RSUExampleScenario2.node[19].nic.mac1609_4 	TotalLostPackets 	567
scalar RSUExampleScenario2.node[19].nic.mac1609_4 	delayMedio 	0.003068741258
scalar RSUExampleScenario2.node[19].nic.mac1609_4 	throughputMedioBPS 	1334749.2198586
scalar RSUExampleScenario2.node[21].nic.mac1609_4 	TotalLostPackets 	861
scalar RSUExampleScenario2.node[21].nic.mac1609_4 	delayMedio 	0.003348274213
scalar RSUExampleScenario2.node[21].nic.mac1609_4 	throughputMedioBPS 	1223316.7714353
scalar RSUExampleScenario2.node[24].nic.mac1609_4 	TotalLostPackets 	567
scalar RSUExampleScenario2.node[24].nic.mac1609_4 	delayMedio 	0.003923158804
scalar RSUExampleScenario2.node[24].nic.mac1609_4 	throughputMedioBPS 	1044056.640102
scalar RSUExampleScenario2.node[26].nic.mac1609_4 	TotalLostPackets 	561
scalar RSUExampleScenario2.node[26].nic.mac1609_4 	delayMedio 	0.004404990323
scalar RSUExampleScenario2.node[26].nic.mac1609_4 	throughputMedioBPS 	929854.48314743
scalar RSUExampleScenario2.node[30].nic.mac1609_4 	TotalLostPackets 	461
scalar RSUExampleScenario2.node[30].nic.mac1609_4 	delayMedio 	0.005044257222
scalar RSUExampleScenario2.node[30].nic.mac1609_4 	throughputMedioBPS 	812012.51633534
scalar RSUExampleScenario2.node[31].nic.mac1609_4 	TotalLostPackets 	206
scalar RSUExampleScenario2.node[31].nic.mac1609_4 	delayMedio 	0.006056049952
scalar RSUExampleScenario2.node[31].nic.mac1609_4 	throughputMedioBPS 	676348.45028347
scalar RSUExampleScenario2.node[32].nic.mac1609_4 	TotalLostPackets 	260
scalar RSUExampleScenario2.node[32].nic.mac1609_4 	delayMedio 	0.000759432384
scalar RSUExampleScenario2.node[32].nic.mac1609_4 	throughputMedioBPS 	5393501.8943523
scalar RSUExampleScenario2.node[35].nic.mac1609_4 	TotalLostPackets 	60
scalar RSUExampleScenario2.node[35].nic.mac1609_4 	delayMedio 	0.000754814489
scalar RSUExampleScenario2.node[35].nic.mac1609_4 	throughputMedioBPS 	5426498.9064752
scalar RSUExampleScenario2.node[10].nic.mac1609_4 	TotalLostPackets 	975
scalar RSUExampleScenario2.node[10].nic.mac1609_4 	delayMedio 	0.005282655134
scalar RSUExampleScenario2.node[10].nic.mac1609_4 	throughputMedioBPS 	775367.66947781
scalar RSUExampleScenario2.node[13].nic.mac1609_4 	TotalLostPackets 	542
scalar RSUExampleScenario2.node[13].nic.mac1609_4 	delayMedio 	0.005417802895
scalar RSUExampleScenario2.node[13].nic.mac1609_4 	throughputMedioBPS 	756026.02745052
scalar RSUExampleScenario2.node[16].nic.mac1609_4 	TotalLostPackets 	911
scalar RSUExampleScenario2.node[16].nic.mac1609_4 	delayMedio 	0.003312459132
scalar RSUExampleScenario2.node[16].nic.mac1609_4 	throughputMedioBPS 	1236543.557705
