version 2
run v1-354-20171212-12:03:41-27625
attr configname v1
attr cwmax 2048
attr cwmin 512
attr datetime 20171212-12:03:41
attr experiment v1
attr inifile omnetpp.ini
attr iterationvars "$cwmin=512, $cwmax=2048, $slotlength=40, $txPower=10"
attr iterationvars2 "$cwmin=512, $cwmax=2048, $slotlength=40, $txPower=10, $repetition=0"
attr measurement "$cwmin=512, $cwmax=2048, $slotlength=40, $txPower=10"
attr network RSUExampleScenario2
attr processid 27625
attr repetition 0
attr replication #0
attr resultdir results
attr runnumber 354
attr seedset 354
attr slotlength 40
attr txPower 10
param **.coreDebug true
param **.debug true
param *.**.nic.mac1609_4.bitrate 6Mbps
param *.**.nic.mac1609_4.cwmax_ "${cwmax=1024, 2048, 4096}"
param *.**.nic.mac1609_4.cwmin_ ${cwmin=512}
param *.**.nic.mac1609_4.slotlength_ "${slotlength=5..100 step 5}ms"
param *.**.nic.mac1609_4.txPower "${txPower=1.26, 2.51, 3.98, 10, 15.85, 25.12, 50.12, 100, 251.19, 501.19, 794.33, 1258.93, 1584.89}mW"
param *.**.nic.mac1609_4.useServiceChannel false
param *.**.nic.phy80211p.analogueModels "xmldoc(\"config.xml\")"
param *.**.nic.phy80211p.decider "xmldoc(\"config.xml\")"
param *.**.nic.phy80211p.sensitivity -89dBm
param *.**.nic.phy80211p.thermalNoise -110dBm
param *.**.nic.phy80211p.usePropagationDelay true
param *.**.nic.phy80211p.useThermalNoise true
param *.annotations.draw false
param *.connectionManager.alpha 2.0
param *.connectionManager.carrierFrequency "5.890e9 Hz"
param *.connectionManager.drawMaxIntfDist false
param *.connectionManager.maxInterfDist 2600m
param *.connectionManager.pMax 20mW
param *.connectionManager.sat -89dBm
param *.connectionManager.sendDirect true
param *.manager.autoShutdown true
param *.manager.host "\"localhost\""
param *.manager.launchConfig "xmldoc(\"osm.launchd.xml\")"
param *.manager.margin 25
param *.manager.moduleDisplayString "\"\""
param *.manager.moduleName "\"node\""
param *.manager.moduleType "\"org.car2x.veins.nodes.Car\""
param *.manager.port 9999
param *.manager.updateInterval 1s
param *.node[*].appl.beaconInterval "0.1 s"
param *.node[*].appl.beaconLengthBits "3960 bit"
param *.node[*].appl.beaconPriority 3
param *.node[*].appl.dataLengthBits "3960 bit"
param *.node[*].appl.dataOnSch false
param *.node[*].appl.dataPriority 2
param *.node[*].appl.debug false
param *.node[*].appl.headerLength "80 bit"
param *.node[*].appl.maxOffset "0.005 s"
param *.node[*].appl.sendBeacons true
param *.node[*].appl.sendData false
param *.node[*].applType "\"TraCIDemo11p\""
param *.node[*].mobilityType "\"TraCIMobility\""
param *.node[*].mobilityType.debug true
param *.node[*].veinsmobility.x 0
param *.node[*].veinsmobility.y 0
param *.node[*].veinsmobility.z 1.895
param *.node[*].veinsmobilityType "\"org.car2x.veins.modules.mobility.traci.TraCIMobility\""
param *.node[*].veinsmobilityType.debug true
param *.obstacles.debug false
param *.playgroundSizeX 2000m
param *.playgroundSizeY 2000m
param *.playgroundSizeZ 50m
param *.world.use2D false
param *.world.useTorus false

scalar . 	cwmax 	2048
scalar . 	cwmin 	512
scalar . 	slotlength 	40
scalar . 	txPower 	10
scalar RSUExampleScenario2.node[5].nic.mac1609_4 	TotalLostPackets 	256
scalar RSUExampleScenario2.node[5].nic.mac1609_4 	delayMedio 	0.008486944885
scalar RSUExampleScenario2.node[5].nic.mac1609_4 	throughputMedioBPS 	482623.61253523
scalar RSUExampleScenario2.node[0].nic.mac1609_4 	TotalLostPackets 	193
scalar RSUExampleScenario2.node[0].nic.mac1609_4 	delayMedio 	0.004567306391
scalar RSUExampleScenario2.node[0].nic.mac1609_4 	throughputMedioBPS 	896808.6765929
scalar RSUExampleScenario2.node[14].nic.mac1609_4 	TotalLostPackets 	713
scalar RSUExampleScenario2.node[14].nic.mac1609_4 	delayMedio 	0.005244980913
scalar RSUExampleScenario2.node[14].nic.mac1609_4 	throughputMedioBPS 	780937.06498566
scalar RSUExampleScenario2.node[7].nic.mac1609_4 	TotalLostPackets 	188
scalar RSUExampleScenario2.node[7].nic.mac1609_4 	delayMedio 	0.006965331343
scalar RSUExampleScenario2.node[7].nic.mac1609_4 	throughputMedioBPS 	588055.29818146
scalar RSUExampleScenario2.node[2].nic.mac1609_4 	TotalLostPackets 	807
scalar RSUExampleScenario2.node[2].nic.mac1609_4 	delayMedio 	0.0098550289
scalar RSUExampleScenario2.node[2].nic.mac1609_4 	throughputMedioBPS 	415625.3666572
scalar RSUExampleScenario2.node[8].nic.mac1609_4 	TotalLostPackets 	476
scalar RSUExampleScenario2.node[8].nic.mac1609_4 	delayMedio 	0.003642375835
scalar RSUExampleScenario2.node[8].nic.mac1609_4 	throughputMedioBPS 	1124540.7353839
scalar RSUExampleScenario2.node[3].nic.mac1609_4 	TotalLostPackets 	1127
scalar RSUExampleScenario2.node[3].nic.mac1609_4 	delayMedio 	0.010077481053
scalar RSUExampleScenario2.node[3].nic.mac1609_4 	throughputMedioBPS 	406450.77659875
scalar RSUExampleScenario2.node[11].nic.mac1609_4 	TotalLostPackets 	1094
scalar RSUExampleScenario2.node[11].nic.mac1609_4 	delayMedio 	0.012104686808
scalar RSUExampleScenario2.node[11].nic.mac1609_4 	throughputMedioBPS 	338381.32822823
scalar RSUExampleScenario2.node[17].nic.mac1609_4 	TotalLostPackets 	835
scalar RSUExampleScenario2.node[17].nic.mac1609_4 	delayMedio 	0.006771897912
scalar RSUExampleScenario2.node[17].nic.mac1609_4 	throughputMedioBPS 	604852.59128615
scalar RSUExampleScenario2.node[27].nic.mac1609_4 	TotalLostPackets 	131
scalar RSUExampleScenario2.node[27].nic.mac1609_4 	delayMedio 	0.000721799115
scalar RSUExampleScenario2.node[27].nic.mac1609_4 	throughputMedioBPS 	5674709.0880969
scalar RSUExampleScenario2.node[12].nic.mac1609_4 	TotalLostPackets 	870
scalar RSUExampleScenario2.node[12].nic.mac1609_4 	delayMedio 	0.012233301697
scalar RSUExampleScenario2.node[12].nic.mac1609_4 	throughputMedioBPS 	334823.75416905
scalar RSUExampleScenario2.node[18].nic.mac1609_4 	TotalLostPackets 	796
scalar RSUExampleScenario2.node[18].nic.mac1609_4 	delayMedio 	0.008094657929
scalar RSUExampleScenario2.node[18].nic.mac1609_4 	throughputMedioBPS 	506012.73532273
scalar RSUExampleScenario2.node[22].nic.mac1609_4 	TotalLostPackets 	956
scalar RSUExampleScenario2.node[22].nic.mac1609_4 	delayMedio 	0.010206714994
scalar RSUExampleScenario2.node[22].nic.mac1609_4 	throughputMedioBPS 	401304.43558478
scalar RSUExampleScenario2.node[28].nic.mac1609_4 	TotalLostPackets 	617
scalar RSUExampleScenario2.node[28].nic.mac1609_4 	delayMedio 	0.017259010061
scalar RSUExampleScenario2.node[28].nic.mac1609_4 	throughputMedioBPS 	237325.31503452
scalar RSUExampleScenario2.node[1].nic.mac1609_4 	TotalLostPackets 	914
scalar RSUExampleScenario2.node[1].nic.mac1609_4 	delayMedio 	0.010371474909
scalar RSUExampleScenario2.node[1].nic.mac1609_4 	throughputMedioBPS 	394929.36501312
scalar RSUExampleScenario2.node[29].nic.mac1609_4 	TotalLostPackets 	9
scalar RSUExampleScenario2.node[29].nic.mac1609_4 	delayMedio 	0.000721622912
scalar RSUExampleScenario2.node[29].nic.mac1609_4 	throughputMedioBPS 	5676094.7175872
scalar RSUExampleScenario2.node[34].nic.mac1609_4 	TotalLostPackets 	188
scalar RSUExampleScenario2.node[34].nic.mac1609_4 	delayMedio 	0.000776636186
scalar RSUExampleScenario2.node[34].nic.mac1609_4 	throughputMedioBPS 	5274026.7214138
scalar RSUExampleScenario2.node[9].nic.mac1609_4 	TotalLostPackets 	747
scalar RSUExampleScenario2.node[9].nic.mac1609_4 	delayMedio 	0.007043398633
scalar RSUExampleScenario2.node[9].nic.mac1609_4 	throughputMedioBPS 	581537.43856319
scalar RSUExampleScenario2.node[15].nic.mac1609_4 	TotalLostPackets 	541
scalar RSUExampleScenario2.node[15].nic.mac1609_4 	delayMedio 	0.009725419375
scalar RSUExampleScenario2.node[15].nic.mac1609_4 	throughputMedioBPS 	421164.35725385
scalar RSUExampleScenario2.node[20].nic.mac1609_4 	TotalLostPackets 	231
scalar RSUExampleScenario2.node[20].nic.mac1609_4 	delayMedio 	0.005375472523
scalar RSUExampleScenario2.node[20].nic.mac1609_4 	throughputMedioBPS 	761979.5250592
scalar RSUExampleScenario2.node[23].nic.mac1609_4 	TotalLostPackets 	849
scalar RSUExampleScenario2.node[23].nic.mac1609_4 	delayMedio 	0.011686756505
scalar RSUExampleScenario2.node[23].nic.mac1609_4 	throughputMedioBPS 	350482.18881571
scalar RSUExampleScenario2.node[25].nic.mac1609_4 	TotalLostPackets 	118
scalar RSUExampleScenario2.node[25].nic.mac1609_4 	delayMedio 	0.011043536372
scalar RSUExampleScenario2.node[25].nic.mac1609_4 	throughputMedioBPS 	370895.68613891
scalar RSUExampleScenario2.node[4].nic.mac1609_4 	TotalLostPackets 	1185
scalar RSUExampleScenario2.node[4].nic.mac1609_4 	delayMedio 	0.009841759217
scalar RSUExampleScenario2.node[4].nic.mac1609_4 	throughputMedioBPS 	416185.75599249
scalar RSUExampleScenario2.node[19].nic.mac1609_4 	TotalLostPackets 	580
scalar RSUExampleScenario2.node[19].nic.mac1609_4 	delayMedio 	0.010076900052
scalar RSUExampleScenario2.node[19].nic.mac1609_4 	throughputMedioBPS 	406474.21121379
scalar RSUExampleScenario2.node[21].nic.mac1609_4 	TotalLostPackets 	574
scalar RSUExampleScenario2.node[21].nic.mac1609_4 	delayMedio 	0.009262944982
scalar RSUExampleScenario2.node[21].nic.mac1609_4 	throughputMedioBPS 	442191.98192718
scalar RSUExampleScenario2.node[24].nic.mac1609_4 	TotalLostPackets 	140
scalar RSUExampleScenario2.node[24].nic.mac1609_4 	delayMedio 	0.005779689857
scalar RSUExampleScenario2.node[24].nic.mac1609_4 	throughputMedioBPS 	708688.54585439
scalar RSUExampleScenario2.node[26].nic.mac1609_4 	TotalLostPackets 	730
scalar RSUExampleScenario2.node[26].nic.mac1609_4 	delayMedio 	0.010833627385
scalar RSUExampleScenario2.node[26].nic.mac1609_4 	throughputMedioBPS 	378082.04533302
scalar RSUExampleScenario2.node[30].nic.mac1609_4 	TotalLostPackets 	66
scalar RSUExampleScenario2.node[30].nic.mac1609_4 	delayMedio 	0.01073222983
scalar RSUExampleScenario2.node[30].nic.mac1609_4 	throughputMedioBPS 	381654.14503171
scalar RSUExampleScenario2.node[31].nic.mac1609_4 	TotalLostPackets 	8
scalar RSUExampleScenario2.node[31].nic.mac1609_4 	delayMedio 	0.000721582588
scalar RSUExampleScenario2.node[31].nic.mac1609_4 	throughputMedioBPS 	5676411.916872
scalar RSUExampleScenario2.node[32].nic.mac1609_4 	TotalLostPackets 	81
scalar RSUExampleScenario2.node[32].nic.mac1609_4 	delayMedio 	0.028374869321
scalar RSUExampleScenario2.node[32].nic.mac1609_4 	throughputMedioBPS 	144353.08771499
scalar RSUExampleScenario2.node[35].nic.mac1609_4 	TotalLostPackets 	0
scalar RSUExampleScenario2.node[35].nic.mac1609_4 	delayMedio 	0.000721730724
scalar RSUExampleScenario2.node[35].nic.mac1609_4 	throughputMedioBPS 	5675246.822799
scalar RSUExampleScenario2.node[10].nic.mac1609_4 	TotalLostPackets 	1151
scalar RSUExampleScenario2.node[10].nic.mac1609_4 	delayMedio 	0.005895099479
scalar RSUExampleScenario2.node[10].nic.mac1609_4 	throughputMedioBPS 	694814.3987617
scalar RSUExampleScenario2.node[13].nic.mac1609_4 	TotalLostPackets 	1083
scalar RSUExampleScenario2.node[13].nic.mac1609_4 	delayMedio 	0.013097573615
scalar RSUExampleScenario2.node[13].nic.mac1609_4 	throughputMedioBPS 	312729.67958176
scalar RSUExampleScenario2.node[16].nic.mac1609_4 	TotalLostPackets 	796
scalar RSUExampleScenario2.node[16].nic.mac1609_4 	delayMedio 	0.008964922344
scalar RSUExampleScenario2.node[16].nic.mac1609_4 	throughputMedioBPS 	456891.85501829
