version 2
run v1-89-20171211-16:38:01-27625
attr configname v1
attr cwmax 1024
attr cwmin 512
attr datetime 20171211-16:38:01
attr experiment v1
attr inifile omnetpp.ini
attr iterationvars "$cwmin=512, $cwmax=1024, $slotlength=35, $txPower=1258.93"
attr iterationvars2 "$cwmin=512, $cwmax=1024, $slotlength=35, $txPower=1258.93, $repetition=0"
attr measurement "$cwmin=512, $cwmax=1024, $slotlength=35, $txPower=1258.93"
attr network RSUExampleScenario2
attr processid 27625
attr repetition 0
attr replication #0
attr resultdir results
attr runnumber 89
attr seedset 89
attr slotlength 35
attr txPower 1258.93
param **.coreDebug true
param **.debug true
param *.**.nic.mac1609_4.bitrate 6Mbps
param *.**.nic.mac1609_4.cwmax_ "${cwmax=1024, 2048, 4096}"
param *.**.nic.mac1609_4.cwmin_ ${cwmin=512}
param *.**.nic.mac1609_4.slotlength_ "${slotlength=5..100 step 5}ms"
param *.**.nic.mac1609_4.txPower "${txPower=1.26, 2.51, 3.98, 10, 15.85, 25.12, 50.12, 100, 251.19, 501.19, 794.33, 1258.93, 1584.89}mW"
param *.**.nic.mac1609_4.useServiceChannel false
param *.**.nic.phy80211p.analogueModels "xmldoc(\"config.xml\")"
param *.**.nic.phy80211p.decider "xmldoc(\"config.xml\")"
param *.**.nic.phy80211p.sensitivity -89dBm
param *.**.nic.phy80211p.thermalNoise -110dBm
param *.**.nic.phy80211p.usePropagationDelay true
param *.**.nic.phy80211p.useThermalNoise true
param *.annotations.draw false
param *.connectionManager.alpha 2.0
param *.connectionManager.carrierFrequency "5.890e9 Hz"
param *.connectionManager.drawMaxIntfDist false
param *.connectionManager.maxInterfDist 2600m
param *.connectionManager.pMax 20mW
param *.connectionManager.sat -89dBm
param *.connectionManager.sendDirect true
param *.manager.autoShutdown true
param *.manager.host "\"localhost\""
param *.manager.launchConfig "xmldoc(\"osm.launchd.xml\")"
param *.manager.margin 25
param *.manager.moduleDisplayString "\"\""
param *.manager.moduleName "\"node\""
param *.manager.moduleType "\"org.car2x.veins.nodes.Car\""
param *.manager.port 9999
param *.manager.updateInterval 1s
param *.node[*].appl.beaconInterval "0.1 s"
param *.node[*].appl.beaconLengthBits "3960 bit"
param *.node[*].appl.beaconPriority 3
param *.node[*].appl.dataLengthBits "3960 bit"
param *.node[*].appl.dataOnSch false
param *.node[*].appl.dataPriority 2
param *.node[*].appl.debug false
param *.node[*].appl.headerLength "80 bit"
param *.node[*].appl.maxOffset "0.005 s"
param *.node[*].appl.sendBeacons true
param *.node[*].appl.sendData false
param *.node[*].applType "\"TraCIDemo11p\""
param *.node[*].mobilityType "\"TraCIMobility\""
param *.node[*].mobilityType.debug true
param *.node[*].veinsmobility.x 0
param *.node[*].veinsmobility.y 0
param *.node[*].veinsmobility.z 1.895
param *.node[*].veinsmobilityType "\"org.car2x.veins.modules.mobility.traci.TraCIMobility\""
param *.node[*].veinsmobilityType.debug true
param *.obstacles.debug false
param *.playgroundSizeX 2000m
param *.playgroundSizeY 2000m
param *.playgroundSizeZ 50m
param *.world.use2D false
param *.world.useTorus false

scalar . 	cwmax 	1024
scalar . 	cwmin 	512
scalar . 	slotlength 	35
scalar . 	txPower 	1258.93
scalar RSUExampleScenario2.node[6].nic.mac1609_4 	TotalLostPackets 	0
scalar RSUExampleScenario2.node[6].nic.mac1609_4 	delayMedio 	0.000723259373
scalar RSUExampleScenario2.node[6].nic.mac1609_4 	throughputMedioBPS 	5663251.8728317
scalar RSUExampleScenario2.node[5].nic.mac1609_4 	TotalLostPackets 	180
scalar RSUExampleScenario2.node[5].nic.mac1609_4 	delayMedio 	0.005722510362
scalar RSUExampleScenario2.node[5].nic.mac1609_4 	throughputMedioBPS 	715769.78302855
scalar RSUExampleScenario2.node[0].nic.mac1609_4 	TotalLostPackets 	220
scalar RSUExampleScenario2.node[0].nic.mac1609_4 	delayMedio 	0.0055924046
scalar RSUExampleScenario2.node[0].nic.mac1609_4 	throughputMedioBPS 	732421.97103834
scalar RSUExampleScenario2.node[14].nic.mac1609_4 	TotalLostPackets 	602
scalar RSUExampleScenario2.node[14].nic.mac1609_4 	delayMedio 	0.006943401805
scalar RSUExampleScenario2.node[14].nic.mac1609_4 	throughputMedioBPS 	589912.56949581
scalar RSUExampleScenario2.node[7].nic.mac1609_4 	TotalLostPackets 	680
scalar RSUExampleScenario2.node[7].nic.mac1609_4 	delayMedio 	0.005834901975
scalar RSUExampleScenario2.node[7].nic.mac1609_4 	throughputMedioBPS 	701982.65835563
scalar RSUExampleScenario2.node[2].nic.mac1609_4 	TotalLostPackets 	662
scalar RSUExampleScenario2.node[2].nic.mac1609_4 	delayMedio 	0.00554533063
scalar RSUExampleScenario2.node[2].nic.mac1609_4 	throughputMedioBPS 	738639.45602169
scalar RSUExampleScenario2.node[8].nic.mac1609_4 	TotalLostPackets 	680
scalar RSUExampleScenario2.node[8].nic.mac1609_4 	delayMedio 	0.005724395071
scalar RSUExampleScenario2.node[8].nic.mac1609_4 	throughputMedioBPS 	715534.12186365
scalar RSUExampleScenario2.node[3].nic.mac1609_4 	TotalLostPackets 	606
scalar RSUExampleScenario2.node[3].nic.mac1609_4 	delayMedio 	0.00490092403
scalar RSUExampleScenario2.node[3].nic.mac1609_4 	throughputMedioBPS 	835760.76159992
scalar RSUExampleScenario2.node[11].nic.mac1609_4 	TotalLostPackets 	680
scalar RSUExampleScenario2.node[11].nic.mac1609_4 	delayMedio 	0.005404752511
scalar RSUExampleScenario2.node[11].nic.mac1609_4 	throughputMedioBPS 	757851.53746543
scalar RSUExampleScenario2.node[17].nic.mac1609_4 	TotalLostPackets 	340
scalar RSUExampleScenario2.node[17].nic.mac1609_4 	delayMedio 	0.002952946806
scalar RSUExampleScenario2.node[17].nic.mac1609_4 	throughputMedioBPS 	1387088.9890499
scalar RSUExampleScenario2.node[27].nic.mac1609_4 	TotalLostPackets 	280
scalar RSUExampleScenario2.node[27].nic.mac1609_4 	delayMedio 	0.005246569178
scalar RSUExampleScenario2.node[27].nic.mac1609_4 	throughputMedioBPS 	780700.65621521
scalar RSUExampleScenario2.node[12].nic.mac1609_4 	TotalLostPackets 	680
scalar RSUExampleScenario2.node[12].nic.mac1609_4 	delayMedio 	0.005400425619
scalar RSUExampleScenario2.node[12].nic.mac1609_4 	throughputMedioBPS 	758458.73804133
scalar RSUExampleScenario2.node[18].nic.mac1609_4 	TotalLostPackets 	680
scalar RSUExampleScenario2.node[18].nic.mac1609_4 	delayMedio 	0.003018001127
scalar RSUExampleScenario2.node[18].nic.mac1609_4 	throughputMedioBPS 	1357189.6851544
scalar RSUExampleScenario2.node[22].nic.mac1609_4 	TotalLostPackets 	433
scalar RSUExampleScenario2.node[22].nic.mac1609_4 	delayMedio 	0.003694019958
scalar RSUExampleScenario2.node[22].nic.mac1609_4 	throughputMedioBPS 	1108819.1309908
scalar RSUExampleScenario2.node[28].nic.mac1609_4 	TotalLostPackets 	261
scalar RSUExampleScenario2.node[28].nic.mac1609_4 	delayMedio 	0.00523469189
scalar RSUExampleScenario2.node[28].nic.mac1609_4 	throughputMedioBPS 	782472.03205407
scalar RSUExampleScenario2.node[33].nic.mac1609_4 	TotalLostPackets 	0
scalar RSUExampleScenario2.node[33].nic.mac1609_4 	delayMedio 	0.000787956157
scalar RSUExampleScenario2.node[33].nic.mac1609_4 	throughputMedioBPS 	5198258.7651204
scalar RSUExampleScenario2.node[1].nic.mac1609_4 	TotalLostPackets 	546
scalar RSUExampleScenario2.node[1].nic.mac1609_4 	delayMedio 	0.004851445952
scalar RSUExampleScenario2.node[1].nic.mac1609_4 	throughputMedioBPS 	844284.37216944
scalar RSUExampleScenario2.node[29].nic.mac1609_4 	TotalLostPackets 	280
scalar RSUExampleScenario2.node[29].nic.mac1609_4 	delayMedio 	0.005220277592
scalar RSUExampleScenario2.node[29].nic.mac1609_4 	throughputMedioBPS 	784632.60392177
scalar RSUExampleScenario2.node[34].nic.mac1609_4 	TotalLostPackets 	0
scalar RSUExampleScenario2.node[34].nic.mac1609_4 	delayMedio 	0.000772356468
scalar RSUExampleScenario2.node[34].nic.mac1609_4 	throughputMedioBPS 	5303250.7233939
scalar RSUExampleScenario2.node[9].nic.mac1609_4 	TotalLostPackets 	624
scalar RSUExampleScenario2.node[9].nic.mac1609_4 	delayMedio 	0.005164031188
scalar RSUExampleScenario2.node[9].nic.mac1609_4 	throughputMedioBPS 	793178.78815848
scalar RSUExampleScenario2.node[15].nic.mac1609_4 	TotalLostPackets 	680
scalar RSUExampleScenario2.node[15].nic.mac1609_4 	delayMedio 	0.00559010005
scalar RSUExampleScenario2.node[15].nic.mac1609_4 	throughputMedioBPS 	732723.91603103
scalar RSUExampleScenario2.node[20].nic.mac1609_4 	TotalLostPackets 	569
scalar RSUExampleScenario2.node[20].nic.mac1609_4 	delayMedio 	0.003494392004
scalar RSUExampleScenario2.node[20].nic.mac1609_4 	throughputMedioBPS 	1172163.8542159
scalar RSUExampleScenario2.node[23].nic.mac1609_4 	TotalLostPackets 	559
scalar RSUExampleScenario2.node[23].nic.mac1609_4 	delayMedio 	0.003736162045
scalar RSUExampleScenario2.node[23].nic.mac1609_4 	throughputMedioBPS 	1096312.1915467
scalar RSUExampleScenario2.node[25].nic.mac1609_4 	TotalLostPackets 	401
scalar RSUExampleScenario2.node[25].nic.mac1609_4 	delayMedio 	0.004267289936
scalar RSUExampleScenario2.node[25].nic.mac1609_4 	throughputMedioBPS 	959859.78490878
scalar RSUExampleScenario2.node[4].nic.mac1609_4 	TotalLostPackets 	649
scalar RSUExampleScenario2.node[4].nic.mac1609_4 	delayMedio 	0.004937181723
scalar RSUExampleScenario2.node[4].nic.mac1609_4 	throughputMedioBPS 	829623.09877112
scalar RSUExampleScenario2.node[19].nic.mac1609_4 	TotalLostPackets 	680
scalar RSUExampleScenario2.node[19].nic.mac1609_4 	delayMedio 	0.003237872938
scalar RSUExampleScenario2.node[19].nic.mac1609_4 	throughputMedioBPS 	1265028.0227202
scalar RSUExampleScenario2.node[21].nic.mac1609_4 	TotalLostPackets 	340
scalar RSUExampleScenario2.node[21].nic.mac1609_4 	delayMedio 	0.003368030655
scalar RSUExampleScenario2.node[21].nic.mac1609_4 	throughputMedioBPS 	1216140.9497962
scalar RSUExampleScenario2.node[24].nic.mac1609_4 	TotalLostPackets 	347
scalar RSUExampleScenario2.node[24].nic.mac1609_4 	delayMedio 	0.004047619858
scalar RSUExampleScenario2.node[24].nic.mac1609_4 	throughputMedioBPS 	1011952.7386183
scalar RSUExampleScenario2.node[26].nic.mac1609_4 	TotalLostPackets 	377
scalar RSUExampleScenario2.node[26].nic.mac1609_4 	delayMedio 	0.004561700174
scalar RSUExampleScenario2.node[26].nic.mac1609_4 	throughputMedioBPS 	897910.83232917
scalar RSUExampleScenario2.node[30].nic.mac1609_4 	TotalLostPackets 	280
scalar RSUExampleScenario2.node[30].nic.mac1609_4 	delayMedio 	0.005230546023
scalar RSUExampleScenario2.node[30].nic.mac1609_4 	throughputMedioBPS 	783092.2396483
scalar RSUExampleScenario2.node[31].nic.mac1609_4 	TotalLostPackets 	180
scalar RSUExampleScenario2.node[31].nic.mac1609_4 	delayMedio 	0.006407041887
scalar RSUExampleScenario2.node[31].nic.mac1609_4 	throughputMedioBPS 	639296.58528404
scalar RSUExampleScenario2.node[32].nic.mac1609_4 	TotalLostPackets 	80
scalar RSUExampleScenario2.node[32].nic.mac1609_4 	delayMedio 	0.000776790035
scalar RSUExampleScenario2.node[32].nic.mac1609_4 	throughputMedioBPS 	5272982.1625086
scalar RSUExampleScenario2.node[35].nic.mac1609_4 	TotalLostPackets 	0
scalar RSUExampleScenario2.node[35].nic.mac1609_4 	delayMedio 	0.000785863054
scalar RSUExampleScenario2.node[35].nic.mac1609_4 	throughputMedioBPS 	5212104.0410988
scalar RSUExampleScenario2.node[10].nic.mac1609_4 	TotalLostPackets 	678
scalar RSUExampleScenario2.node[10].nic.mac1609_4 	delayMedio 	0.005278772411
scalar RSUExampleScenario2.node[10].nic.mac1609_4 	throughputMedioBPS 	775937.979672
scalar RSUExampleScenario2.node[13].nic.mac1609_4 	TotalLostPackets 	680
scalar RSUExampleScenario2.node[13].nic.mac1609_4 	delayMedio 	0.005551997381
scalar RSUExampleScenario2.node[13].nic.mac1609_4 	throughputMedioBPS 	737752.50934821
scalar RSUExampleScenario2.node[16].nic.mac1609_4 	TotalLostPackets 	635
scalar RSUExampleScenario2.node[16].nic.mac1609_4 	delayMedio 	0.003364747306
scalar RSUExampleScenario2.node[16].nic.mac1609_4 	throughputMedioBPS 	1217327.6703806
