version 2
run v1-98-20171211-17:13:31-27625
attr configname v1
attr cwmax 1024
attr cwmin 512
attr datetime 20171211-17:13:31
attr experiment v1
attr inifile omnetpp.ini
attr iterationvars "$cwmin=512, $cwmax=1024, $slotlength=40, $txPower=100"
attr iterationvars2 "$cwmin=512, $cwmax=1024, $slotlength=40, $txPower=100, $repetition=0"
attr measurement "$cwmin=512, $cwmax=1024, $slotlength=40, $txPower=100"
attr network RSUExampleScenario2
attr processid 27625
attr repetition 0
attr replication #0
attr resultdir results
attr runnumber 98
attr seedset 98
attr slotlength 40
attr txPower 100
param **.coreDebug true
param **.debug true
param *.**.nic.mac1609_4.bitrate 6Mbps
param *.**.nic.mac1609_4.cwmax_ "${cwmax=1024, 2048, 4096}"
param *.**.nic.mac1609_4.cwmin_ ${cwmin=512}
param *.**.nic.mac1609_4.slotlength_ "${slotlength=5..100 step 5}ms"
param *.**.nic.mac1609_4.txPower "${txPower=1.26, 2.51, 3.98, 10, 15.85, 25.12, 50.12, 100, 251.19, 501.19, 794.33, 1258.93, 1584.89}mW"
param *.**.nic.mac1609_4.useServiceChannel false
param *.**.nic.phy80211p.analogueModels "xmldoc(\"config.xml\")"
param *.**.nic.phy80211p.decider "xmldoc(\"config.xml\")"
param *.**.nic.phy80211p.sensitivity -89dBm
param *.**.nic.phy80211p.thermalNoise -110dBm
param *.**.nic.phy80211p.usePropagationDelay true
param *.**.nic.phy80211p.useThermalNoise true
param *.annotations.draw false
param *.connectionManager.alpha 2.0
param *.connectionManager.carrierFrequency "5.890e9 Hz"
param *.connectionManager.drawMaxIntfDist false
param *.connectionManager.maxInterfDist 2600m
param *.connectionManager.pMax 20mW
param *.connectionManager.sat -89dBm
param *.connectionManager.sendDirect true
param *.manager.autoShutdown true
param *.manager.host "\"localhost\""
param *.manager.launchConfig "xmldoc(\"osm.launchd.xml\")"
param *.manager.margin 25
param *.manager.moduleDisplayString "\"\""
param *.manager.moduleName "\"node\""
param *.manager.moduleType "\"org.car2x.veins.nodes.Car\""
param *.manager.port 9999
param *.manager.updateInterval 1s
param *.node[*].appl.beaconInterval "0.1 s"
param *.node[*].appl.beaconLengthBits "3960 bit"
param *.node[*].appl.beaconPriority 3
param *.node[*].appl.dataLengthBits "3960 bit"
param *.node[*].appl.dataOnSch false
param *.node[*].appl.dataPriority 2
param *.node[*].appl.debug false
param *.node[*].appl.headerLength "80 bit"
param *.node[*].appl.maxOffset "0.005 s"
param *.node[*].appl.sendBeacons true
param *.node[*].appl.sendData false
param *.node[*].applType "\"TraCIDemo11p\""
param *.node[*].mobilityType "\"TraCIMobility\""
param *.node[*].mobilityType.debug true
param *.node[*].veinsmobility.x 0
param *.node[*].veinsmobility.y 0
param *.node[*].veinsmobility.z 1.895
param *.node[*].veinsmobilityType "\"org.car2x.veins.modules.mobility.traci.TraCIMobility\""
param *.node[*].veinsmobilityType.debug true
param *.obstacles.debug false
param *.playgroundSizeX 2000m
param *.playgroundSizeY 2000m
param *.playgroundSizeZ 50m
param *.world.use2D false
param *.world.useTorus false

scalar . 	cwmax 	1024
scalar . 	cwmin 	512
scalar . 	slotlength 	40
scalar . 	txPower 	100
scalar RSUExampleScenario2.node[6].nic.mac1609_4 	TotalLostPackets 	0
scalar RSUExampleScenario2.node[6].nic.mac1609_4 	delayMedio 	0.000723259541
scalar RSUExampleScenario2.node[6].nic.mac1609_4 	throughputMedioBPS 	5663250.5597386
scalar RSUExampleScenario2.node[5].nic.mac1609_4 	TotalLostPackets 	80
scalar RSUExampleScenario2.node[5].nic.mac1609_4 	delayMedio 	0.005712862943
scalar RSUExampleScenario2.node[5].nic.mac1609_4 	throughputMedioBPS 	716978.51687852
scalar RSUExampleScenario2.node[0].nic.mac1609_4 	TotalLostPackets 	60
scalar RSUExampleScenario2.node[0].nic.mac1609_4 	delayMedio 	0.005542733242
scalar RSUExampleScenario2.node[0].nic.mac1609_4 	throughputMedioBPS 	738985.59085428
scalar RSUExampleScenario2.node[14].nic.mac1609_4 	TotalLostPackets 	121
scalar RSUExampleScenario2.node[14].nic.mac1609_4 	delayMedio 	0.006709946812
scalar RSUExampleScenario2.node[14].nic.mac1609_4 	throughputMedioBPS 	610437.02947375
scalar RSUExampleScenario2.node[7].nic.mac1609_4 	TotalLostPackets 	113
scalar RSUExampleScenario2.node[7].nic.mac1609_4 	delayMedio 	0.006335922312
scalar RSUExampleScenario2.node[7].nic.mac1609_4 	throughputMedioBPS 	646472.57310548
scalar RSUExampleScenario2.node[2].nic.mac1609_4 	TotalLostPackets 	61
scalar RSUExampleScenario2.node[2].nic.mac1609_4 	delayMedio 	0.00585074236
scalar RSUExampleScenario2.node[2].nic.mac1609_4 	throughputMedioBPS 	700082.10037334
scalar RSUExampleScenario2.node[8].nic.mac1609_4 	TotalLostPackets 	61
scalar RSUExampleScenario2.node[8].nic.mac1609_4 	delayMedio 	0.006120712954
scalar RSUExampleScenario2.node[8].nic.mac1609_4 	throughputMedioBPS 	669203.08647519
scalar RSUExampleScenario2.node[3].nic.mac1609_4 	TotalLostPackets 	122
scalar RSUExampleScenario2.node[3].nic.mac1609_4 	delayMedio 	0.005222769785
scalar RSUExampleScenario2.node[3].nic.mac1609_4 	throughputMedioBPS 	784258.19420824
scalar RSUExampleScenario2.node[11].nic.mac1609_4 	TotalLostPackets 	122
scalar RSUExampleScenario2.node[11].nic.mac1609_4 	delayMedio 	0.005725463821
scalar RSUExampleScenario2.node[11].nic.mac1609_4 	throughputMedioBPS 	715400.55580496
scalar RSUExampleScenario2.node[17].nic.mac1609_4 	TotalLostPackets 	91
scalar RSUExampleScenario2.node[17].nic.mac1609_4 	delayMedio 	0.002853579038
scalar RSUExampleScenario2.node[17].nic.mac1609_4 	throughputMedioBPS 	1435390.4152328
scalar RSUExampleScenario2.node[27].nic.mac1609_4 	TotalLostPackets 	2
scalar RSUExampleScenario2.node[27].nic.mac1609_4 	delayMedio 	0.005801114691
scalar RSUExampleScenario2.node[27].nic.mac1609_4 	throughputMedioBPS 	706071.19801538
scalar RSUExampleScenario2.node[12].nic.mac1609_4 	TotalLostPackets 	122
scalar RSUExampleScenario2.node[12].nic.mac1609_4 	delayMedio 	0.005728189367
scalar RSUExampleScenario2.node[12].nic.mac1609_4 	throughputMedioBPS 	715060.15910933
scalar RSUExampleScenario2.node[18].nic.mac1609_4 	TotalLostPackets 	65
scalar RSUExampleScenario2.node[18].nic.mac1609_4 	delayMedio 	0.003485227466
scalar RSUExampleScenario2.node[18].nic.mac1609_4 	throughputMedioBPS 	1175246.1037442
scalar RSUExampleScenario2.node[22].nic.mac1609_4 	TotalLostPackets 	121
scalar RSUExampleScenario2.node[22].nic.mac1609_4 	delayMedio 	0.004321933539
scalar RSUExampleScenario2.node[22].nic.mac1609_4 	throughputMedioBPS 	947723.96721672
scalar RSUExampleScenario2.node[28].nic.mac1609_4 	TotalLostPackets 	1
scalar RSUExampleScenario2.node[28].nic.mac1609_4 	delayMedio 	0.006122209921
scalar RSUExampleScenario2.node[28].nic.mac1609_4 	throughputMedioBPS 	669039.45685728
scalar RSUExampleScenario2.node[33].nic.mac1609_4 	TotalLostPackets 	0
scalar RSUExampleScenario2.node[33].nic.mac1609_4 	delayMedio 	0.000803179284
scalar RSUExampleScenario2.node[33].nic.mac1609_4 	throughputMedioBPS 	5099733.1271936
scalar RSUExampleScenario2.node[1].nic.mac1609_4 	TotalLostPackets 	122
scalar RSUExampleScenario2.node[1].nic.mac1609_4 	delayMedio 	0.005200076277
scalar RSUExampleScenario2.node[1].nic.mac1609_4 	throughputMedioBPS 	787680.7535513
scalar RSUExampleScenario2.node[29].nic.mac1609_4 	TotalLostPackets 	2
scalar RSUExampleScenario2.node[29].nic.mac1609_4 	delayMedio 	0.005456007069
scalar RSUExampleScenario2.node[29].nic.mac1609_4 	throughputMedioBPS 	750732.16511725
scalar RSUExampleScenario2.node[34].nic.mac1609_4 	TotalLostPackets 	0
scalar RSUExampleScenario2.node[34].nic.mac1609_4 	delayMedio 	0.00079115541
scalar RSUExampleScenario2.node[34].nic.mac1609_4 	throughputMedioBPS 	5177238.1862408
scalar RSUExampleScenario2.node[9].nic.mac1609_4 	TotalLostPackets 	62
scalar RSUExampleScenario2.node[9].nic.mac1609_4 	delayMedio 	0.00548921936
scalar RSUExampleScenario2.node[9].nic.mac1609_4 	throughputMedioBPS 	746189.89167786
scalar RSUExampleScenario2.node[15].nic.mac1609_4 	TotalLostPackets 	61
scalar RSUExampleScenario2.node[15].nic.mac1609_4 	delayMedio 	0.005979852394
scalar RSUExampleScenario2.node[15].nic.mac1609_4 	throughputMedioBPS 	684966.74003457
scalar RSUExampleScenario2.node[20].nic.mac1609_4 	TotalLostPackets 	61
scalar RSUExampleScenario2.node[20].nic.mac1609_4 	delayMedio 	0.00321541572
scalar RSUExampleScenario2.node[20].nic.mac1609_4 	throughputMedioBPS 	1273863.2749422
scalar RSUExampleScenario2.node[23].nic.mac1609_4 	TotalLostPackets 	61
scalar RSUExampleScenario2.node[23].nic.mac1609_4 	delayMedio 	0.004286119326
scalar RSUExampleScenario2.node[23].nic.mac1609_4 	throughputMedioBPS 	955643.01608196
scalar RSUExampleScenario2.node[25].nic.mac1609_4 	TotalLostPackets 	2
scalar RSUExampleScenario2.node[25].nic.mac1609_4 	delayMedio 	0.004977349194
scalar RSUExampleScenario2.node[25].nic.mac1609_4 	throughputMedioBPS 	822927.99651381
scalar RSUExampleScenario2.node[4].nic.mac1609_4 	TotalLostPackets 	122
scalar RSUExampleScenario2.node[4].nic.mac1609_4 	delayMedio 	0.005256415707
scalar RSUExampleScenario2.node[4].nic.mac1609_4 	throughputMedioBPS 	779238.21630427
scalar RSUExampleScenario2.node[19].nic.mac1609_4 	TotalLostPackets 	62
scalar RSUExampleScenario2.node[19].nic.mac1609_4 	delayMedio 	0.003762173117
scalar RSUExampleScenario2.node[19].nic.mac1609_4 	throughputMedioBPS 	1088732.4619976
scalar RSUExampleScenario2.node[21].nic.mac1609_4 	TotalLostPackets 	122
scalar RSUExampleScenario2.node[21].nic.mac1609_4 	delayMedio 	0.003991747747
scalar RSUExampleScenario2.node[21].nic.mac1609_4 	throughputMedioBPS 	1026116.9442449
scalar RSUExampleScenario2.node[24].nic.mac1609_4 	TotalLostPackets 	11
scalar RSUExampleScenario2.node[24].nic.mac1609_4 	delayMedio 	0.003635731834
scalar RSUExampleScenario2.node[24].nic.mac1609_4 	throughputMedioBPS 	1126595.7410532
scalar RSUExampleScenario2.node[26].nic.mac1609_4 	TotalLostPackets 	1
scalar RSUExampleScenario2.node[26].nic.mac1609_4 	delayMedio 	0.005309095635
scalar RSUExampleScenario2.node[26].nic.mac1609_4 	throughputMedioBPS 	771506.16259121
scalar RSUExampleScenario2.node[30].nic.mac1609_4 	TotalLostPackets 	2
scalar RSUExampleScenario2.node[30].nic.mac1609_4 	delayMedio 	0.005571590999
scalar RSUExampleScenario2.node[30].nic.mac1609_4 	throughputMedioBPS 	735158.05461111
scalar RSUExampleScenario2.node[31].nic.mac1609_4 	TotalLostPackets 	2
scalar RSUExampleScenario2.node[31].nic.mac1609_4 	delayMedio 	0.006535026016
scalar RSUExampleScenario2.node[31].nic.mac1609_4 	throughputMedioBPS 	626776.38769509
scalar RSUExampleScenario2.node[32].nic.mac1609_4 	TotalLostPackets 	0
scalar RSUExampleScenario2.node[32].nic.mac1609_4 	delayMedio 	0.000800953695
scalar RSUExampleScenario2.node[32].nic.mac1609_4 	throughputMedioBPS 	5113903.6180033
scalar RSUExampleScenario2.node[35].nic.mac1609_4 	TotalLostPackets 	0
scalar RSUExampleScenario2.node[35].nic.mac1609_4 	delayMedio 	0.000799485843
scalar RSUExampleScenario2.node[35].nic.mac1609_4 	throughputMedioBPS 	5123292.7204848
scalar RSUExampleScenario2.node[10].nic.mac1609_4 	TotalLostPackets 	61
scalar RSUExampleScenario2.node[10].nic.mac1609_4 	delayMedio 	0.005590533386
scalar RSUExampleScenario2.node[10].nic.mac1609_4 	throughputMedioBPS 	732667.12088463
scalar RSUExampleScenario2.node[13].nic.mac1609_4 	TotalLostPackets 	122
scalar RSUExampleScenario2.node[13].nic.mac1609_4 	delayMedio 	0.00588704679
scalar RSUExampleScenario2.node[13].nic.mac1609_4 	throughputMedioBPS 	695764.8114673
scalar RSUExampleScenario2.node[16].nic.mac1609_4 	TotalLostPackets 	62
scalar RSUExampleScenario2.node[16].nic.mac1609_4 	delayMedio 	0.003805067068
scalar RSUExampleScenario2.node[16].nic.mac1609_4 	throughputMedioBPS 	1076459.3440792
