version 2
run v1-766-20171213-18:32:05-27625
attr configname v1
attr cwmax 4096
attr cwmin 512
attr datetime 20171213-18:32:05
attr experiment v1
attr inifile omnetpp.ini
attr iterationvars "$cwmin=512, $cwmax=4096, $slotlength=95, $txPower=1584.89"
attr iterationvars2 "$cwmin=512, $cwmax=4096, $slotlength=95, $txPower=1584.89, $repetition=0"
attr measurement "$cwmin=512, $cwmax=4096, $slotlength=95, $txPower=1584.89"
attr network RSUExampleScenario2
attr processid 27625
attr repetition 0
attr replication #0
attr resultdir results
attr runnumber 766
attr seedset 766
attr slotlength 95
attr txPower 1584.89
param **.coreDebug true
param **.debug true
param *.**.nic.mac1609_4.bitrate 6Mbps
param *.**.nic.mac1609_4.cwmax_ "${cwmax=1024, 2048, 4096}"
param *.**.nic.mac1609_4.cwmin_ ${cwmin=512}
param *.**.nic.mac1609_4.slotlength_ "${slotlength=5..100 step 5}ms"
param *.**.nic.mac1609_4.txPower "${txPower=1.26, 2.51, 3.98, 10, 15.85, 25.12, 50.12, 100, 251.19, 501.19, 794.33, 1258.93, 1584.89}mW"
param *.**.nic.mac1609_4.useServiceChannel false
param *.**.nic.phy80211p.analogueModels "xmldoc(\"config.xml\")"
param *.**.nic.phy80211p.decider "xmldoc(\"config.xml\")"
param *.**.nic.phy80211p.sensitivity -89dBm
param *.**.nic.phy80211p.thermalNoise -110dBm
param *.**.nic.phy80211p.usePropagationDelay true
param *.**.nic.phy80211p.useThermalNoise true
param *.annotations.draw false
param *.connectionManager.alpha 2.0
param *.connectionManager.carrierFrequency "5.890e9 Hz"
param *.connectionManager.drawMaxIntfDist false
param *.connectionManager.maxInterfDist 2600m
param *.connectionManager.pMax 20mW
param *.connectionManager.sat -89dBm
param *.connectionManager.sendDirect true
param *.manager.autoShutdown true
param *.manager.host "\"localhost\""
param *.manager.launchConfig "xmldoc(\"osm.launchd.xml\")"
param *.manager.margin 25
param *.manager.moduleDisplayString "\"\""
param *.manager.moduleName "\"node\""
param *.manager.moduleType "\"org.car2x.veins.nodes.Car\""
param *.manager.port 9999
param *.manager.updateInterval 1s
param *.node[*].appl.beaconInterval "0.1 s"
param *.node[*].appl.beaconLengthBits "3960 bit"
param *.node[*].appl.beaconPriority 3
param *.node[*].appl.dataLengthBits "3960 bit"
param *.node[*].appl.dataOnSch false
param *.node[*].appl.dataPriority 2
param *.node[*].appl.debug false
param *.node[*].appl.headerLength "80 bit"
param *.node[*].appl.maxOffset "0.005 s"
param *.node[*].appl.sendBeacons true
param *.node[*].appl.sendData false
param *.node[*].applType "\"TraCIDemo11p\""
param *.node[*].mobilityType "\"TraCIMobility\""
param *.node[*].mobilityType.debug true
param *.node[*].veinsmobility.x 0
param *.node[*].veinsmobility.y 0
param *.node[*].veinsmobility.z 1.895
param *.node[*].veinsmobilityType "\"org.car2x.veins.modules.mobility.traci.TraCIMobility\""
param *.node[*].veinsmobilityType.debug true
param *.obstacles.debug false
param *.playgroundSizeX 2000m
param *.playgroundSizeY 2000m
param *.playgroundSizeZ 50m
param *.world.use2D false
param *.world.useTorus false

scalar . 	cwmax 	4096
scalar . 	cwmin 	512
scalar . 	slotlength 	95
scalar . 	txPower 	1584.89
scalar RSUExampleScenario2.node[6].nic.mac1609_4 	TotalLostPackets 	0
scalar RSUExampleScenario2.node[6].nic.mac1609_4 	delayMedio 	0.000753617607
scalar RSUExampleScenario2.node[6].nic.mac1609_4 	throughputMedioBPS 	5435117.1733728
scalar RSUExampleScenario2.node[5].nic.mac1609_4 	TotalLostPackets 	1
scalar RSUExampleScenario2.node[5].nic.mac1609_4 	delayMedio 	0.00530986639
scalar RSUExampleScenario2.node[5].nic.mac1609_4 	throughputMedioBPS 	771394.17433595
scalar RSUExampleScenario2.node[0].nic.mac1609_4 	TotalLostPackets 	2
scalar RSUExampleScenario2.node[0].nic.mac1609_4 	delayMedio 	0.005182614825
scalar RSUExampleScenario2.node[0].nic.mac1609_4 	throughputMedioBPS 	790334.63574858
scalar RSUExampleScenario2.node[14].nic.mac1609_4 	TotalLostPackets 	2
scalar RSUExampleScenario2.node[14].nic.mac1609_4 	delayMedio 	0.006442237301
scalar RSUExampleScenario2.node[14].nic.mac1609_4 	throughputMedioBPS 	635803.96199753
scalar RSUExampleScenario2.node[7].nic.mac1609_4 	TotalLostPackets 	1
scalar RSUExampleScenario2.node[7].nic.mac1609_4 	delayMedio 	0.005452145863
scalar RSUExampleScenario2.node[7].nic.mac1609_4 	throughputMedioBPS 	751263.83321288
scalar RSUExampleScenario2.node[2].nic.mac1609_4 	TotalLostPackets 	2
scalar RSUExampleScenario2.node[2].nic.mac1609_4 	delayMedio 	0.005201796388
scalar RSUExampleScenario2.node[2].nic.mac1609_4 	throughputMedioBPS 	787420.28610726
scalar RSUExampleScenario2.node[8].nic.mac1609_4 	TotalLostPackets 	1
scalar RSUExampleScenario2.node[8].nic.mac1609_4 	delayMedio 	0.005349720336
scalar RSUExampleScenario2.node[8].nic.mac1609_4 	throughputMedioBPS 	765647.49985997
scalar RSUExampleScenario2.node[3].nic.mac1609_4 	TotalLostPackets 	2
scalar RSUExampleScenario2.node[3].nic.mac1609_4 	delayMedio 	0.004637312501
scalar RSUExampleScenario2.node[3].nic.mac1609_4 	throughputMedioBPS 	883270.21291582
scalar RSUExampleScenario2.node[11].nic.mac1609_4 	TotalLostPackets 	1
scalar RSUExampleScenario2.node[11].nic.mac1609_4 	delayMedio 	0.005069021573
scalar RSUExampleScenario2.node[11].nic.mac1609_4 	throughputMedioBPS 	808045.48589085
scalar RSUExampleScenario2.node[17].nic.mac1609_4 	TotalLostPackets 	0
scalar RSUExampleScenario2.node[17].nic.mac1609_4 	delayMedio 	0.002943604007
scalar RSUExampleScenario2.node[17].nic.mac1609_4 	throughputMedioBPS 	1391491.5151471
scalar RSUExampleScenario2.node[27].nic.mac1609_4 	TotalLostPackets 	0
scalar RSUExampleScenario2.node[27].nic.mac1609_4 	delayMedio 	0.005086905211
scalar RSUExampleScenario2.node[27].nic.mac1609_4 	throughputMedioBPS 	805204.7030561
scalar RSUExampleScenario2.node[12].nic.mac1609_4 	TotalLostPackets 	1
scalar RSUExampleScenario2.node[12].nic.mac1609_4 	delayMedio 	0.005061258665
scalar RSUExampleScenario2.node[12].nic.mac1609_4 	throughputMedioBPS 	809284.85792265
scalar RSUExampleScenario2.node[18].nic.mac1609_4 	TotalLostPackets 	0
scalar RSUExampleScenario2.node[18].nic.mac1609_4 	delayMedio 	0.002937349898
scalar RSUExampleScenario2.node[18].nic.mac1609_4 	throughputMedioBPS 	1394454.2335207
scalar RSUExampleScenario2.node[22].nic.mac1609_4 	TotalLostPackets 	0
scalar RSUExampleScenario2.node[22].nic.mac1609_4 	delayMedio 	0.003614084008
scalar RSUExampleScenario2.node[22].nic.mac1609_4 	throughputMedioBPS 	1133343.8822899
scalar RSUExampleScenario2.node[28].nic.mac1609_4 	TotalLostPackets 	0
scalar RSUExampleScenario2.node[28].nic.mac1609_4 	delayMedio 	0.00509694253
scalar RSUExampleScenario2.node[28].nic.mac1609_4 	throughputMedioBPS 	803619.02763341
scalar RSUExampleScenario2.node[33].nic.mac1609_4 	TotalLostPackets 	0
scalar RSUExampleScenario2.node[33].nic.mac1609_4 	delayMedio 	0.000803850603
scalar RSUExampleScenario2.node[33].nic.mac1609_4 	throughputMedioBPS 	5095474.1927873
scalar RSUExampleScenario2.node[1].nic.mac1609_4 	TotalLostPackets 	2
scalar RSUExampleScenario2.node[1].nic.mac1609_4 	delayMedio 	0.004607562397
scalar RSUExampleScenario2.node[1].nic.mac1609_4 	throughputMedioBPS 	888973.31107333
scalar RSUExampleScenario2.node[29].nic.mac1609_4 	TotalLostPackets 	0
scalar RSUExampleScenario2.node[29].nic.mac1609_4 	delayMedio 	0.005089139448
scalar RSUExampleScenario2.node[29].nic.mac1609_4 	throughputMedioBPS 	804851.20157223
scalar RSUExampleScenario2.node[34].nic.mac1609_4 	TotalLostPackets 	0
scalar RSUExampleScenario2.node[34].nic.mac1609_4 	delayMedio 	0.000782196406
scalar RSUExampleScenario2.node[34].nic.mac1609_4 	throughputMedioBPS 	5236536.4632099
scalar RSUExampleScenario2.node[9].nic.mac1609_4 	TotalLostPackets 	1
scalar RSUExampleScenario2.node[9].nic.mac1609_4 	delayMedio 	0.005010488889
scalar RSUExampleScenario2.node[9].nic.mac1609_4 	throughputMedioBPS 	817485.0978888
scalar RSUExampleScenario2.node[15].nic.mac1609_4 	TotalLostPackets 	2
scalar RSUExampleScenario2.node[15].nic.mac1609_4 	delayMedio 	0.005204583085
scalar RSUExampleScenario2.node[15].nic.mac1609_4 	throughputMedioBPS 	786998.67657255
scalar RSUExampleScenario2.node[20].nic.mac1609_4 	TotalLostPackets 	0
scalar RSUExampleScenario2.node[20].nic.mac1609_4 	delayMedio 	0.003398527759
scalar RSUExampleScenario2.node[20].nic.mac1609_4 	throughputMedioBPS 	1205227.7603469
scalar RSUExampleScenario2.node[23].nic.mac1609_4 	TotalLostPackets 	0
scalar RSUExampleScenario2.node[23].nic.mac1609_4 	delayMedio 	0.003611258467
scalar RSUExampleScenario2.node[23].nic.mac1609_4 	throughputMedioBPS 	1134230.6394491
scalar RSUExampleScenario2.node[25].nic.mac1609_4 	TotalLostPackets 	0
scalar RSUExampleScenario2.node[25].nic.mac1609_4 	delayMedio 	0.004128650472
scalar RSUExampleScenario2.node[25].nic.mac1609_4 	throughputMedioBPS 	992091.73267663
scalar RSUExampleScenario2.node[4].nic.mac1609_4 	TotalLostPackets 	1
scalar RSUExampleScenario2.node[4].nic.mac1609_4 	delayMedio 	0.004664718894
scalar RSUExampleScenario2.node[4].nic.mac1609_4 	throughputMedioBPS 	878080.77885837
scalar RSUExampleScenario2.node[19].nic.mac1609_4 	TotalLostPackets 	0
scalar RSUExampleScenario2.node[19].nic.mac1609_4 	delayMedio 	0.00313384055
scalar RSUExampleScenario2.node[19].nic.mac1609_4 	throughputMedioBPS 	1307022.4648858
scalar RSUExampleScenario2.node[21].nic.mac1609_4 	TotalLostPackets 	0
scalar RSUExampleScenario2.node[21].nic.mac1609_4 	delayMedio 	0.003346446264
scalar RSUExampleScenario2.node[21].nic.mac1609_4 	throughputMedioBPS 	1223984.9908063
scalar RSUExampleScenario2.node[24].nic.mac1609_4 	TotalLostPackets 	0
scalar RSUExampleScenario2.node[24].nic.mac1609_4 	delayMedio 	0.003973044539
scalar RSUExampleScenario2.node[24].nic.mac1609_4 	throughputMedioBPS 	1030947.415637
scalar RSUExampleScenario2.node[26].nic.mac1609_4 	TotalLostPackets 	0
scalar RSUExampleScenario2.node[26].nic.mac1609_4 	delayMedio 	0.004426579052
scalar RSUExampleScenario2.node[26].nic.mac1609_4 	throughputMedioBPS 	925319.51908326
scalar RSUExampleScenario2.node[30].nic.mac1609_4 	TotalLostPackets 	0
scalar RSUExampleScenario2.node[30].nic.mac1609_4 	delayMedio 	0.005092540948
scalar RSUExampleScenario2.node[30].nic.mac1609_4 	throughputMedioBPS 	804313.61111041
scalar RSUExampleScenario2.node[31].nic.mac1609_4 	TotalLostPackets 	0
scalar RSUExampleScenario2.node[31].nic.mac1609_4 	delayMedio 	0.006248998592
scalar RSUExampleScenario2.node[31].nic.mac1609_4 	throughputMedioBPS 	655465.02204203
scalar RSUExampleScenario2.node[32].nic.mac1609_4 	TotalLostPackets 	0
scalar RSUExampleScenario2.node[32].nic.mac1609_4 	delayMedio 	0.000796069066
scalar RSUExampleScenario2.node[32].nic.mac1609_4 	throughputMedioBPS 	5145282.2071746
scalar RSUExampleScenario2.node[35].nic.mac1609_4 	TotalLostPackets 	0
scalar RSUExampleScenario2.node[35].nic.mac1609_4 	delayMedio 	0.000801405399
scalar RSUExampleScenario2.node[35].nic.mac1609_4 	throughputMedioBPS 	5111021.2183423
scalar RSUExampleScenario2.node[10].nic.mac1609_4 	TotalLostPackets 	1
scalar RSUExampleScenario2.node[10].nic.mac1609_4 	delayMedio 	0.005092360806
scalar RSUExampleScenario2.node[10].nic.mac1609_4 	throughputMedioBPS 	804342.06378209
scalar RSUExampleScenario2.node[13].nic.mac1609_4 	TotalLostPackets 	1
scalar RSUExampleScenario2.node[13].nic.mac1609_4 	delayMedio 	0.005196219031
scalar RSUExampleScenario2.node[13].nic.mac1609_4 	throughputMedioBPS 	788265.4629512
scalar RSUExampleScenario2.node[16].nic.mac1609_4 	TotalLostPackets 	0
scalar RSUExampleScenario2.node[16].nic.mac1609_4 	delayMedio 	0.003288971644
scalar RSUExampleScenario2.node[16].nic.mac1609_4 	throughputMedioBPS 	1245374.0692301
