version 2
run v1-71-20171211-15:14:11-27625
attr configname v1
attr cwmax 1024
attr cwmin 512
attr datetime 20171211-15:14:11
attr experiment v1
attr inifile omnetpp.ini
attr iterationvars "$cwmin=512, $cwmax=1024, $slotlength=30, $txPower=50.12"
attr iterationvars2 "$cwmin=512, $cwmax=1024, $slotlength=30, $txPower=50.12, $repetition=0"
attr measurement "$cwmin=512, $cwmax=1024, $slotlength=30, $txPower=50.12"
attr network RSUExampleScenario2
attr processid 27625
attr repetition 0
attr replication #0
attr resultdir results
attr runnumber 71
attr seedset 71
attr slotlength 30
attr txPower 50.12
param **.coreDebug true
param **.debug true
param *.**.nic.mac1609_4.bitrate 6Mbps
param *.**.nic.mac1609_4.cwmax_ "${cwmax=1024, 2048, 4096}"
param *.**.nic.mac1609_4.cwmin_ ${cwmin=512}
param *.**.nic.mac1609_4.slotlength_ "${slotlength=5..100 step 5}ms"
param *.**.nic.mac1609_4.txPower "${txPower=1.26, 2.51, 3.98, 10, 15.85, 25.12, 50.12, 100, 251.19, 501.19, 794.33, 1258.93, 1584.89}mW"
param *.**.nic.mac1609_4.useServiceChannel false
param *.**.nic.phy80211p.analogueModels "xmldoc(\"config.xml\")"
param *.**.nic.phy80211p.decider "xmldoc(\"config.xml\")"
param *.**.nic.phy80211p.sensitivity -89dBm
param *.**.nic.phy80211p.thermalNoise -110dBm
param *.**.nic.phy80211p.usePropagationDelay true
param *.**.nic.phy80211p.useThermalNoise true
param *.annotations.draw false
param *.connectionManager.alpha 2.0
param *.connectionManager.carrierFrequency "5.890e9 Hz"
param *.connectionManager.drawMaxIntfDist false
param *.connectionManager.maxInterfDist 2600m
param *.connectionManager.pMax 20mW
param *.connectionManager.sat -89dBm
param *.connectionManager.sendDirect true
param *.manager.autoShutdown true
param *.manager.host "\"localhost\""
param *.manager.launchConfig "xmldoc(\"osm.launchd.xml\")"
param *.manager.margin 25
param *.manager.moduleDisplayString "\"\""
param *.manager.moduleName "\"node\""
param *.manager.moduleType "\"org.car2x.veins.nodes.Car\""
param *.manager.port 9999
param *.manager.updateInterval 1s
param *.node[*].appl.beaconInterval "0.1 s"
param *.node[*].appl.beaconLengthBits "3960 bit"
param *.node[*].appl.beaconPriority 3
param *.node[*].appl.dataLengthBits "3960 bit"
param *.node[*].appl.dataOnSch false
param *.node[*].appl.dataPriority 2
param *.node[*].appl.debug false
param *.node[*].appl.headerLength "80 bit"
param *.node[*].appl.maxOffset "0.005 s"
param *.node[*].appl.sendBeacons true
param *.node[*].appl.sendData false
param *.node[*].applType "\"TraCIDemo11p\""
param *.node[*].mobilityType "\"TraCIMobility\""
param *.node[*].mobilityType.debug true
param *.node[*].veinsmobility.x 0
param *.node[*].veinsmobility.y 0
param *.node[*].veinsmobility.z 1.895
param *.node[*].veinsmobilityType "\"org.car2x.veins.modules.mobility.traci.TraCIMobility\""
param *.node[*].veinsmobilityType.debug true
param *.obstacles.debug false
param *.playgroundSizeX 2000m
param *.playgroundSizeY 2000m
param *.playgroundSizeZ 50m
param *.world.use2D false
param *.world.useTorus false

scalar . 	cwmax 	1024
scalar . 	cwmin 	512
scalar . 	slotlength 	30
scalar . 	txPower 	50.12
scalar RSUExampleScenario2.node[6].nic.mac1609_4 	TotalLostPackets 	0
scalar RSUExampleScenario2.node[6].nic.mac1609_4 	delayMedio 	0.000723240967
scalar RSUExampleScenario2.node[6].nic.mac1609_4 	throughputMedioBPS 	5663395.999833
scalar RSUExampleScenario2.node[5].nic.mac1609_4 	TotalLostPackets 	282
scalar RSUExampleScenario2.node[5].nic.mac1609_4 	delayMedio 	0.004555453054
scalar RSUExampleScenario2.node[5].nic.mac1609_4 	throughputMedioBPS 	899142.18218063
scalar RSUExampleScenario2.node[0].nic.mac1609_4 	TotalLostPackets 	280
scalar RSUExampleScenario2.node[0].nic.mac1609_4 	delayMedio 	0.004413566715
scalar RSUExampleScenario2.node[0].nic.mac1609_4 	throughputMedioBPS 	928047.6005199
scalar RSUExampleScenario2.node[14].nic.mac1609_4 	TotalLostPackets 	372
scalar RSUExampleScenario2.node[14].nic.mac1609_4 	delayMedio 	0.006364325074
scalar RSUExampleScenario2.node[14].nic.mac1609_4 	throughputMedioBPS 	643587.49005799
scalar RSUExampleScenario2.node[7].nic.mac1609_4 	TotalLostPackets 	4
scalar RSUExampleScenario2.node[7].nic.mac1609_4 	delayMedio 	0.006208733206
scalar RSUExampleScenario2.node[7].nic.mac1609_4 	throughputMedioBPS 	659715.89756472
scalar RSUExampleScenario2.node[2].nic.mac1609_4 	TotalLostPackets 	942
scalar RSUExampleScenario2.node[2].nic.mac1609_4 	delayMedio 	0.005717470519
scalar RSUExampleScenario2.node[2].nic.mac1609_4 	throughputMedioBPS 	716400.72056983
scalar RSUExampleScenario2.node[8].nic.mac1609_4 	TotalLostPackets 	280
scalar RSUExampleScenario2.node[8].nic.mac1609_4 	delayMedio 	0.006916916893
scalar RSUExampleScenario2.node[8].nic.mac1609_4 	throughputMedioBPS 	592171.3479259
scalar RSUExampleScenario2.node[3].nic.mac1609_4 	TotalLostPackets 	1099
scalar RSUExampleScenario2.node[3].nic.mac1609_4 	delayMedio 	0.00517125631
scalar RSUExampleScenario2.node[3].nic.mac1609_4 	throughputMedioBPS 	792070.58300354
scalar RSUExampleScenario2.node[11].nic.mac1609_4 	TotalLostPackets 	1114
scalar RSUExampleScenario2.node[11].nic.mac1609_4 	delayMedio 	0.005497549863
scalar RSUExampleScenario2.node[11].nic.mac1609_4 	throughputMedioBPS 	745059.1813346
scalar RSUExampleScenario2.node[17].nic.mac1609_4 	TotalLostPackets 	357
scalar RSUExampleScenario2.node[17].nic.mac1609_4 	delayMedio 	0.003429142822
scalar RSUExampleScenario2.node[17].nic.mac1609_4 	throughputMedioBPS 	1194467.6010177
scalar RSUExampleScenario2.node[27].nic.mac1609_4 	TotalLostPackets 	220
scalar RSUExampleScenario2.node[27].nic.mac1609_4 	delayMedio 	0.007036466155
scalar RSUExampleScenario2.node[27].nic.mac1609_4 	throughputMedioBPS 	582110.38181578
scalar RSUExampleScenario2.node[12].nic.mac1609_4 	TotalLostPackets 	1012
scalar RSUExampleScenario2.node[12].nic.mac1609_4 	delayMedio 	0.005900987675
scalar RSUExampleScenario2.node[12].nic.mac1609_4 	throughputMedioBPS 	694121.09044396
scalar RSUExampleScenario2.node[18].nic.mac1609_4 	TotalLostPackets 	730
scalar RSUExampleScenario2.node[18].nic.mac1609_4 	delayMedio 	0.004306464797
scalar RSUExampleScenario2.node[18].nic.mac1609_4 	throughputMedioBPS 	951128.17421489
scalar RSUExampleScenario2.node[22].nic.mac1609_4 	TotalLostPackets 	979
scalar RSUExampleScenario2.node[22].nic.mac1609_4 	delayMedio 	0.005238936031
scalar RSUExampleScenario2.node[22].nic.mac1609_4 	throughputMedioBPS 	781838.13965865
scalar RSUExampleScenario2.node[28].nic.mac1609_4 	TotalLostPackets 	680
scalar RSUExampleScenario2.node[28].nic.mac1609_4 	delayMedio 	0.007605780775
scalar RSUExampleScenario2.node[28].nic.mac1609_4 	throughputMedioBPS 	538537.74141157
scalar RSUExampleScenario2.node[33].nic.mac1609_4 	TotalLostPackets 	120
scalar RSUExampleScenario2.node[33].nic.mac1609_4 	delayMedio 	0.000853652688
scalar RSUExampleScenario2.node[33].nic.mac1609_4 	throughputMedioBPS 	4798204.3027371
scalar RSUExampleScenario2.node[1].nic.mac1609_4 	TotalLostPackets 	1087
scalar RSUExampleScenario2.node[1].nic.mac1609_4 	delayMedio 	0.005111730127
scalar RSUExampleScenario2.node[1].nic.mac1609_4 	throughputMedioBPS 	801294.25816129
scalar RSUExampleScenario2.node[29].nic.mac1609_4 	TotalLostPackets 	50
scalar RSUExampleScenario2.node[29].nic.mac1609_4 	delayMedio 	0.006603480151
scalar RSUExampleScenario2.node[29].nic.mac1609_4 	throughputMedioBPS 	620278.99024199
scalar RSUExampleScenario2.node[34].nic.mac1609_4 	TotalLostPackets 	160
scalar RSUExampleScenario2.node[34].nic.mac1609_4 	delayMedio 	0.0008219304
scalar RSUExampleScenario2.node[34].nic.mac1609_4 	throughputMedioBPS 	4983390.3216942
scalar RSUExampleScenario2.node[9].nic.mac1609_4 	TotalLostPackets 	670
scalar RSUExampleScenario2.node[9].nic.mac1609_4 	delayMedio 	0.004929155434
scalar RSUExampleScenario2.node[9].nic.mac1609_4 	throughputMedioBPS 	830973.99840358
scalar RSUExampleScenario2.node[15].nic.mac1609_4 	TotalLostPackets 	590
scalar RSUExampleScenario2.node[15].nic.mac1609_4 	delayMedio 	0.00645490265
scalar RSUExampleScenario2.node[15].nic.mac1609_4 	throughputMedioBPS 	634556.43286574
scalar RSUExampleScenario2.node[20].nic.mac1609_4 	TotalLostPackets 	351
scalar RSUExampleScenario2.node[20].nic.mac1609_4 	delayMedio 	0.004607755516
scalar RSUExampleScenario2.node[20].nic.mac1609_4 	throughputMedioBPS 	888936.05270305
scalar RSUExampleScenario2.node[23].nic.mac1609_4 	TotalLostPackets 	964
scalar RSUExampleScenario2.node[23].nic.mac1609_4 	delayMedio 	0.005269012419
scalar RSUExampleScenario2.node[23].nic.mac1609_4 	throughputMedioBPS 	777375.27914948
scalar RSUExampleScenario2.node[25].nic.mac1609_4 	TotalLostPackets 	518
scalar RSUExampleScenario2.node[25].nic.mac1609_4 	delayMedio 	0.005435870703
scalar RSUExampleScenario2.node[25].nic.mac1609_4 	throughputMedioBPS 	753513.13961848
scalar RSUExampleScenario2.node[4].nic.mac1609_4 	TotalLostPackets 	1102
scalar RSUExampleScenario2.node[4].nic.mac1609_4 	delayMedio 	0.005206177476
scalar RSUExampleScenario2.node[4].nic.mac1609_4 	throughputMedioBPS 	786757.65835063
scalar RSUExampleScenario2.node[19].nic.mac1609_4 	TotalLostPackets 	642
scalar RSUExampleScenario2.node[19].nic.mac1609_4 	delayMedio 	0.004371658163
scalar RSUExampleScenario2.node[19].nic.mac1609_4 	throughputMedioBPS 	936944.25475891
scalar RSUExampleScenario2.node[21].nic.mac1609_4 	TotalLostPackets 	952
scalar RSUExampleScenario2.node[21].nic.mac1609_4 	delayMedio 	0.004123576787
scalar RSUExampleScenario2.node[21].nic.mac1609_4 	throughputMedioBPS 	993312.4110509
scalar RSUExampleScenario2.node[24].nic.mac1609_4 	TotalLostPackets 	384
scalar RSUExampleScenario2.node[24].nic.mac1609_4 	delayMedio 	0.005218054261
scalar RSUExampleScenario2.node[24].nic.mac1609_4 	throughputMedioBPS 	784966.92347698
scalar RSUExampleScenario2.node[26].nic.mac1609_4 	TotalLostPackets 	739
scalar RSUExampleScenario2.node[26].nic.mac1609_4 	delayMedio 	0.006571036326
scalar RSUExampleScenario2.node[26].nic.mac1609_4 	throughputMedioBPS 	623341.55475883
scalar RSUExampleScenario2.node[30].nic.mac1609_4 	TotalLostPackets 	450
scalar RSUExampleScenario2.node[30].nic.mac1609_4 	delayMedio 	0.005757403162
scalar RSUExampleScenario2.node[30].nic.mac1609_4 	throughputMedioBPS 	711431.85297888
scalar RSUExampleScenario2.node[31].nic.mac1609_4 	TotalLostPackets 	40
scalar RSUExampleScenario2.node[31].nic.mac1609_4 	delayMedio 	0.008095413591
scalar RSUExampleScenario2.node[31].nic.mac1609_4 	throughputMedioBPS 	505965.50181762
scalar RSUExampleScenario2.node[32].nic.mac1609_4 	TotalLostPackets 	131
scalar RSUExampleScenario2.node[32].nic.mac1609_4 	delayMedio 	0.000798072118
scalar RSUExampleScenario2.node[32].nic.mac1609_4 	throughputMedioBPS 	5132368.2516372
scalar RSUExampleScenario2.node[35].nic.mac1609_4 	TotalLostPackets 	90
scalar RSUExampleScenario2.node[35].nic.mac1609_4 	delayMedio 	0.00080789105
scalar RSUExampleScenario2.node[35].nic.mac1609_4 	throughputMedioBPS 	5069990.5612763
scalar RSUExampleScenario2.node[10].nic.mac1609_4 	TotalLostPackets 	300
scalar RSUExampleScenario2.node[10].nic.mac1609_4 	delayMedio 	0.004623684588
scalar RSUExampleScenario2.node[10].nic.mac1609_4 	throughputMedioBPS 	885873.57592197
scalar RSUExampleScenario2.node[13].nic.mac1609_4 	TotalLostPackets 	1088
scalar RSUExampleScenario2.node[13].nic.mac1609_4 	delayMedio 	0.005708957629
scalar RSUExampleScenario2.node[13].nic.mac1609_4 	throughputMedioBPS 	717468.97875939
scalar RSUExampleScenario2.node[16].nic.mac1609_4 	TotalLostPackets 	460
scalar RSUExampleScenario2.node[16].nic.mac1609_4 	delayMedio 	0.003666384417
scalar RSUExampleScenario2.node[16].nic.mac1609_4 	throughputMedioBPS 	1117176.9061563
