version 2
run v1-72-20171211-15:19:10-27625
attr configname v1
attr cwmax 1024
attr cwmin 512
attr datetime 20171211-15:19:10
attr experiment v1
attr inifile omnetpp.ini
attr iterationvars "$cwmin=512, $cwmax=1024, $slotlength=30, $txPower=100"
attr iterationvars2 "$cwmin=512, $cwmax=1024, $slotlength=30, $txPower=100, $repetition=0"
attr measurement "$cwmin=512, $cwmax=1024, $slotlength=30, $txPower=100"
attr network RSUExampleScenario2
attr processid 27625
attr repetition 0
attr replication #0
attr resultdir results
attr runnumber 72
attr seedset 72
attr slotlength 30
attr txPower 100
param **.coreDebug true
param **.debug true
param *.**.nic.mac1609_4.bitrate 6Mbps
param *.**.nic.mac1609_4.cwmax_ "${cwmax=1024, 2048, 4096}"
param *.**.nic.mac1609_4.cwmin_ ${cwmin=512}
param *.**.nic.mac1609_4.slotlength_ "${slotlength=5..100 step 5}ms"
param *.**.nic.mac1609_4.txPower "${txPower=1.26, 2.51, 3.98, 10, 15.85, 25.12, 50.12, 100, 251.19, 501.19, 794.33, 1258.93, 1584.89}mW"
param *.**.nic.mac1609_4.useServiceChannel false
param *.**.nic.phy80211p.analogueModels "xmldoc(\"config.xml\")"
param *.**.nic.phy80211p.decider "xmldoc(\"config.xml\")"
param *.**.nic.phy80211p.sensitivity -89dBm
param *.**.nic.phy80211p.thermalNoise -110dBm
param *.**.nic.phy80211p.usePropagationDelay true
param *.**.nic.phy80211p.useThermalNoise true
param *.annotations.draw false
param *.connectionManager.alpha 2.0
param *.connectionManager.carrierFrequency "5.890e9 Hz"
param *.connectionManager.drawMaxIntfDist false
param *.connectionManager.maxInterfDist 2600m
param *.connectionManager.pMax 20mW
param *.connectionManager.sat -89dBm
param *.connectionManager.sendDirect true
param *.manager.autoShutdown true
param *.manager.host "\"localhost\""
param *.manager.launchConfig "xmldoc(\"osm.launchd.xml\")"
param *.manager.margin 25
param *.manager.moduleDisplayString "\"\""
param *.manager.moduleName "\"node\""
param *.manager.moduleType "\"org.car2x.veins.nodes.Car\""
param *.manager.port 9999
param *.manager.updateInterval 1s
param *.node[*].appl.beaconInterval "0.1 s"
param *.node[*].appl.beaconLengthBits "3960 bit"
param *.node[*].appl.beaconPriority 3
param *.node[*].appl.dataLengthBits "3960 bit"
param *.node[*].appl.dataOnSch false
param *.node[*].appl.dataPriority 2
param *.node[*].appl.debug false
param *.node[*].appl.headerLength "80 bit"
param *.node[*].appl.maxOffset "0.005 s"
param *.node[*].appl.sendBeacons true
param *.node[*].appl.sendData false
param *.node[*].applType "\"TraCIDemo11p\""
param *.node[*].mobilityType "\"TraCIMobility\""
param *.node[*].mobilityType.debug true
param *.node[*].veinsmobility.x 0
param *.node[*].veinsmobility.y 0
param *.node[*].veinsmobility.z 1.895
param *.node[*].veinsmobilityType "\"org.car2x.veins.modules.mobility.traci.TraCIMobility\""
param *.node[*].veinsmobilityType.debug true
param *.obstacles.debug false
param *.playgroundSizeX 2000m
param *.playgroundSizeY 2000m
param *.playgroundSizeZ 50m
param *.world.use2D false
param *.world.useTorus false

scalar . 	cwmax 	1024
scalar . 	cwmin 	512
scalar . 	slotlength 	30
scalar . 	txPower 	100
scalar RSUExampleScenario2.node[6].nic.mac1609_4 	TotalLostPackets 	0
scalar RSUExampleScenario2.node[6].nic.mac1609_4 	delayMedio 	0.000723259187
scalar RSUExampleScenario2.node[6].nic.mac1609_4 	throughputMedioBPS 	5663253.3288263
scalar RSUExampleScenario2.node[5].nic.mac1609_4 	TotalLostPackets 	0
scalar RSUExampleScenario2.node[5].nic.mac1609_4 	delayMedio 	0.005553373866
scalar RSUExampleScenario2.node[5].nic.mac1609_4 	throughputMedioBPS 	737569.64658847
scalar RSUExampleScenario2.node[0].nic.mac1609_4 	TotalLostPackets 	0
scalar RSUExampleScenario2.node[0].nic.mac1609_4 	delayMedio 	0.005420335282
scalar RSUExampleScenario2.node[0].nic.mac1609_4 	throughputMedioBPS 	755672.8112329
scalar RSUExampleScenario2.node[14].nic.mac1609_4 	TotalLostPackets 	191
scalar RSUExampleScenario2.node[14].nic.mac1609_4 	delayMedio 	0.006447219966
scalar RSUExampleScenario2.node[14].nic.mac1609_4 	throughputMedioBPS 	635312.58772651
scalar RSUExampleScenario2.node[7].nic.mac1609_4 	TotalLostPackets 	216
scalar RSUExampleScenario2.node[7].nic.mac1609_4 	delayMedio 	0.006122946332
scalar RSUExampleScenario2.node[7].nic.mac1609_4 	throughputMedioBPS 	668958.99094916
scalar RSUExampleScenario2.node[2].nic.mac1609_4 	TotalLostPackets 	288
scalar RSUExampleScenario2.node[2].nic.mac1609_4 	delayMedio 	0.005693876076
scalar RSUExampleScenario2.node[2].nic.mac1609_4 	throughputMedioBPS 	719369.36198444
scalar RSUExampleScenario2.node[8].nic.mac1609_4 	TotalLostPackets 	300
scalar RSUExampleScenario2.node[8].nic.mac1609_4 	delayMedio 	0.005956440633
scalar RSUExampleScenario2.node[8].nic.mac1609_4 	throughputMedioBPS 	687658.9984447
scalar RSUExampleScenario2.node[3].nic.mac1609_4 	TotalLostPackets 	232
scalar RSUExampleScenario2.node[3].nic.mac1609_4 	delayMedio 	0.005040552388
scalar RSUExampleScenario2.node[3].nic.mac1609_4 	throughputMedioBPS 	812609.35002698
scalar RSUExampleScenario2.node[11].nic.mac1609_4 	TotalLostPackets 	462
scalar RSUExampleScenario2.node[11].nic.mac1609_4 	delayMedio 	0.005604939976
scalar RSUExampleScenario2.node[11].nic.mac1609_4 	throughputMedioBPS 	730783.91877973
scalar RSUExampleScenario2.node[17].nic.mac1609_4 	TotalLostPackets 	240
scalar RSUExampleScenario2.node[17].nic.mac1609_4 	delayMedio 	0.002843150517
scalar RSUExampleScenario2.node[17].nic.mac1609_4 	throughputMedioBPS 	1440655.3488675
scalar RSUExampleScenario2.node[27].nic.mac1609_4 	TotalLostPackets 	232
scalar RSUExampleScenario2.node[27].nic.mac1609_4 	delayMedio 	0.005539973641
scalar RSUExampleScenario2.node[27].nic.mac1609_4 	throughputMedioBPS 	739353.69826363
scalar RSUExampleScenario2.node[12].nic.mac1609_4 	TotalLostPackets 	461
scalar RSUExampleScenario2.node[12].nic.mac1609_4 	delayMedio 	0.005596885652
scalar RSUExampleScenario2.node[12].nic.mac1609_4 	throughputMedioBPS 	731835.56971239
scalar RSUExampleScenario2.node[18].nic.mac1609_4 	TotalLostPackets 	462
scalar RSUExampleScenario2.node[18].nic.mac1609_4 	delayMedio 	0.003352022881
scalar RSUExampleScenario2.node[18].nic.mac1609_4 	throughputMedioBPS 	1221948.6995878
scalar RSUExampleScenario2.node[22].nic.mac1609_4 	TotalLostPackets 	369
scalar RSUExampleScenario2.node[22].nic.mac1609_4 	delayMedio 	0.004108501937
scalar RSUExampleScenario2.node[22].nic.mac1609_4 	throughputMedioBPS 	996957.05700469
scalar RSUExampleScenario2.node[28].nic.mac1609_4 	TotalLostPackets 	341
scalar RSUExampleScenario2.node[28].nic.mac1609_4 	delayMedio 	0.00596859533
scalar RSUExampleScenario2.node[28].nic.mac1609_4 	throughputMedioBPS 	686258.6208734
scalar RSUExampleScenario2.node[33].nic.mac1609_4 	TotalLostPackets 	160
scalar RSUExampleScenario2.node[33].nic.mac1609_4 	delayMedio 	0.000775713154
scalar RSUExampleScenario2.node[33].nic.mac1609_4 	throughputMedioBPS 	5280302.3661169
scalar RSUExampleScenario2.node[1].nic.mac1609_4 	TotalLostPackets 	232
scalar RSUExampleScenario2.node[1].nic.mac1609_4 	delayMedio 	0.005015396271
scalar RSUExampleScenario2.node[1].nic.mac1609_4 	throughputMedioBPS 	816685.21858897
scalar RSUExampleScenario2.node[29].nic.mac1609_4 	TotalLostPackets 	416
scalar RSUExampleScenario2.node[29].nic.mac1609_4 	delayMedio 	0.00531797975
scalar RSUExampleScenario2.node[29].nic.mac1609_4 	throughputMedioBPS 	770217.29908854
scalar RSUExampleScenario2.node[34].nic.mac1609_4 	TotalLostPackets 	82
scalar RSUExampleScenario2.node[34].nic.mac1609_4 	delayMedio 	0.000791683535
scalar RSUExampleScenario2.node[34].nic.mac1609_4 	throughputMedioBPS 	5173784.4983188
scalar RSUExampleScenario2.node[9].nic.mac1609_4 	TotalLostPackets 	232
scalar RSUExampleScenario2.node[9].nic.mac1609_4 	delayMedio 	0.005443727046
scalar RSUExampleScenario2.node[9].nic.mac1609_4 	throughputMedioBPS 	752425.67552307
scalar RSUExampleScenario2.node[15].nic.mac1609_4 	TotalLostPackets 	461
scalar RSUExampleScenario2.node[15].nic.mac1609_4 	delayMedio 	0.005893478377
scalar RSUExampleScenario2.node[15].nic.mac1609_4 	throughputMedioBPS 	695005.51932589
scalar RSUExampleScenario2.node[20].nic.mac1609_4 	TotalLostPackets 	241
scalar RSUExampleScenario2.node[20].nic.mac1609_4 	delayMedio 	0.00299278517
scalar RSUExampleScenario2.node[20].nic.mac1609_4 	throughputMedioBPS 	1368624.7982224
scalar RSUExampleScenario2.node[23].nic.mac1609_4 	TotalLostPackets 	254
scalar RSUExampleScenario2.node[23].nic.mac1609_4 	delayMedio 	0.004088100549
scalar RSUExampleScenario2.node[23].nic.mac1609_4 	throughputMedioBPS 	1001932.3034897
scalar RSUExampleScenario2.node[25].nic.mac1609_4 	TotalLostPackets 	321
scalar RSUExampleScenario2.node[25].nic.mac1609_4 	delayMedio 	0.005070269113
scalar RSUExampleScenario2.node[25].nic.mac1609_4 	throughputMedioBPS 	807846.66633186
scalar RSUExampleScenario2.node[4].nic.mac1609_4 	TotalLostPackets 	232
scalar RSUExampleScenario2.node[4].nic.mac1609_4 	delayMedio 	0.005059138173
scalar RSUExampleScenario2.node[4].nic.mac1609_4 	throughputMedioBPS 	809624.06238556
scalar RSUExampleScenario2.node[19].nic.mac1609_4 	TotalLostPackets 	461
scalar RSUExampleScenario2.node[19].nic.mac1609_4 	delayMedio 	0.003630676158
scalar RSUExampleScenario2.node[19].nic.mac1609_4 	throughputMedioBPS 	1128164.5130184
scalar RSUExampleScenario2.node[21].nic.mac1609_4 	TotalLostPackets 	232
scalar RSUExampleScenario2.node[21].nic.mac1609_4 	delayMedio 	0.003972433457
scalar RSUExampleScenario2.node[21].nic.mac1609_4 	throughputMedioBPS 	1031106.0069746
scalar RSUExampleScenario2.node[24].nic.mac1609_4 	TotalLostPackets 	240
scalar RSUExampleScenario2.node[24].nic.mac1609_4 	delayMedio 	0.00338367376
scalar RSUExampleScenario2.node[24].nic.mac1609_4 	throughputMedioBPS 	1210518.5931872
scalar RSUExampleScenario2.node[26].nic.mac1609_4 	TotalLostPackets 	294
scalar RSUExampleScenario2.node[26].nic.mac1609_4 	delayMedio 	0.005102990561
scalar RSUExampleScenario2.node[26].nic.mac1609_4 	throughputMedioBPS 	802666.58358709
scalar RSUExampleScenario2.node[30].nic.mac1609_4 	TotalLostPackets 	356
scalar RSUExampleScenario2.node[30].nic.mac1609_4 	delayMedio 	0.005783600157
scalar RSUExampleScenario2.node[30].nic.mac1609_4 	throughputMedioBPS 	708209.40052559
scalar RSUExampleScenario2.node[31].nic.mac1609_4 	TotalLostPackets 	319
scalar RSUExampleScenario2.node[31].nic.mac1609_4 	delayMedio 	0.006374582846
scalar RSUExampleScenario2.node[31].nic.mac1609_4 	throughputMedioBPS 	642551.84984865
scalar RSUExampleScenario2.node[32].nic.mac1609_4 	TotalLostPackets 	260
scalar RSUExampleScenario2.node[32].nic.mac1609_4 	delayMedio 	0.000781295507
scalar RSUExampleScenario2.node[32].nic.mac1609_4 	throughputMedioBPS 	5242574.6237113
scalar RSUExampleScenario2.node[35].nic.mac1609_4 	TotalLostPackets 	60
scalar RSUExampleScenario2.node[35].nic.mac1609_4 	delayMedio 	0.000772790591
scalar RSUExampleScenario2.node[35].nic.mac1609_4 	throughputMedioBPS 	5300271.5707136
scalar RSUExampleScenario2.node[10].nic.mac1609_4 	TotalLostPackets 	338
scalar RSUExampleScenario2.node[10].nic.mac1609_4 	delayMedio 	0.005598135489
scalar RSUExampleScenario2.node[10].nic.mac1609_4 	throughputMedioBPS 	731672.18052821
scalar RSUExampleScenario2.node[13].nic.mac1609_4 	TotalLostPackets 	462
scalar RSUExampleScenario2.node[13].nic.mac1609_4 	delayMedio 	0.005760880193
scalar RSUExampleScenario2.node[13].nic.mac1609_4 	throughputMedioBPS 	711002.4619463
scalar RSUExampleScenario2.node[16].nic.mac1609_4 	TotalLostPackets 	232
scalar RSUExampleScenario2.node[16].nic.mac1609_4 	delayMedio 	0.003788953874
scalar RSUExampleScenario2.node[16].nic.mac1609_4 	throughputMedioBPS 	1081037.1769603
