version 2
run v1-628-20171213-08:15:37-27625
attr configname v1
attr cwmax 4096
attr cwmin 512
attr datetime 20171213-08:15:37
attr experiment v1
attr inifile omnetpp.ini
attr iterationvars "$cwmin=512, $cwmax=4096, $slotlength=45, $txPower=15.85"
attr iterationvars2 "$cwmin=512, $cwmax=4096, $slotlength=45, $txPower=15.85, $repetition=0"
attr measurement "$cwmin=512, $cwmax=4096, $slotlength=45, $txPower=15.85"
attr network RSUExampleScenario2
attr processid 27625
attr repetition 0
attr replication #0
attr resultdir results
attr runnumber 628
attr seedset 628
attr slotlength 45
attr txPower 15.85
param **.coreDebug true
param **.debug true
param *.**.nic.mac1609_4.bitrate 6Mbps
param *.**.nic.mac1609_4.cwmax_ "${cwmax=1024, 2048, 4096}"
param *.**.nic.mac1609_4.cwmin_ ${cwmin=512}
param *.**.nic.mac1609_4.slotlength_ "${slotlength=5..100 step 5}ms"
param *.**.nic.mac1609_4.txPower "${txPower=1.26, 2.51, 3.98, 10, 15.85, 25.12, 50.12, 100, 251.19, 501.19, 794.33, 1258.93, 1584.89}mW"
param *.**.nic.mac1609_4.useServiceChannel false
param *.**.nic.phy80211p.analogueModels "xmldoc(\"config.xml\")"
param *.**.nic.phy80211p.decider "xmldoc(\"config.xml\")"
param *.**.nic.phy80211p.sensitivity -89dBm
param *.**.nic.phy80211p.thermalNoise -110dBm
param *.**.nic.phy80211p.usePropagationDelay true
param *.**.nic.phy80211p.useThermalNoise true
param *.annotations.draw false
param *.connectionManager.alpha 2.0
param *.connectionManager.carrierFrequency "5.890e9 Hz"
param *.connectionManager.drawMaxIntfDist false
param *.connectionManager.maxInterfDist 2600m
param *.connectionManager.pMax 20mW
param *.connectionManager.sat -89dBm
param *.connectionManager.sendDirect true
param *.manager.autoShutdown true
param *.manager.host "\"localhost\""
param *.manager.launchConfig "xmldoc(\"osm.launchd.xml\")"
param *.manager.margin 25
param *.manager.moduleDisplayString "\"\""
param *.manager.moduleName "\"node\""
param *.manager.moduleType "\"org.car2x.veins.nodes.Car\""
param *.manager.port 9999
param *.manager.updateInterval 1s
param *.node[*].appl.beaconInterval "0.1 s"
param *.node[*].appl.beaconLengthBits "3960 bit"
param *.node[*].appl.beaconPriority 3
param *.node[*].appl.dataLengthBits "3960 bit"
param *.node[*].appl.dataOnSch false
param *.node[*].appl.dataPriority 2
param *.node[*].appl.debug false
param *.node[*].appl.headerLength "80 bit"
param *.node[*].appl.maxOffset "0.005 s"
param *.node[*].appl.sendBeacons true
param *.node[*].appl.sendData false
param *.node[*].applType "\"TraCIDemo11p\""
param *.node[*].mobilityType "\"TraCIMobility\""
param *.node[*].mobilityType.debug true
param *.node[*].veinsmobility.x 0
param *.node[*].veinsmobility.y 0
param *.node[*].veinsmobility.z 1.895
param *.node[*].veinsmobilityType "\"org.car2x.veins.modules.mobility.traci.TraCIMobility\""
param *.node[*].veinsmobilityType.debug true
param *.obstacles.debug false
param *.playgroundSizeX 2000m
param *.playgroundSizeY 2000m
param *.playgroundSizeZ 50m
param *.world.use2D false
param *.world.useTorus false

scalar . 	cwmax 	4096
scalar . 	cwmin 	512
scalar . 	slotlength 	45
scalar . 	txPower 	15.85
scalar RSUExampleScenario2.node[6].nic.mac1609_4 	TotalLostPackets 	0
scalar RSUExampleScenario2.node[6].nic.mac1609_4 	delayMedio 	0.000722440152
scalar RSUExampleScenario2.node[6].nic.mac1609_4 	throughputMedioBPS 	5669673.7966373
scalar RSUExampleScenario2.node[5].nic.mac1609_4 	TotalLostPackets 	87
scalar RSUExampleScenario2.node[5].nic.mac1609_4 	delayMedio 	0.006007278045
scalar RSUExampleScenario2.node[5].nic.mac1609_4 	throughputMedioBPS 	681839.59007464
scalar RSUExampleScenario2.node[0].nic.mac1609_4 	TotalLostPackets 	620
scalar RSUExampleScenario2.node[0].nic.mac1609_4 	delayMedio 	0.004797100384
scalar RSUExampleScenario2.node[0].nic.mac1609_4 	throughputMedioBPS 	853849.13221276
scalar RSUExampleScenario2.node[14].nic.mac1609_4 	TotalLostPackets 	499
scalar RSUExampleScenario2.node[14].nic.mac1609_4 	delayMedio 	0.00718604197
scalar RSUExampleScenario2.node[14].nic.mac1609_4 	throughputMedioBPS 	569993.88776272
scalar RSUExampleScenario2.node[7].nic.mac1609_4 	TotalLostPackets 	160
scalar RSUExampleScenario2.node[7].nic.mac1609_4 	delayMedio 	0.005869821693
scalar RSUExampleScenario2.node[7].nic.mac1609_4 	throughputMedioBPS 	697806.5457682
scalar RSUExampleScenario2.node[2].nic.mac1609_4 	TotalLostPackets 	1157
scalar RSUExampleScenario2.node[2].nic.mac1609_4 	delayMedio 	0.005011235997
scalar RSUExampleScenario2.node[2].nic.mac1609_4 	throughputMedioBPS 	817363.22188737
scalar RSUExampleScenario2.node[8].nic.mac1609_4 	TotalLostPackets 	312
scalar RSUExampleScenario2.node[8].nic.mac1609_4 	delayMedio 	0.006330992393
scalar RSUExampleScenario2.node[8].nic.mac1609_4 	throughputMedioBPS 	646975.97874432
scalar RSUExampleScenario2.node[3].nic.mac1609_4 	TotalLostPackets 	1350
scalar RSUExampleScenario2.node[3].nic.mac1609_4 	delayMedio 	0.004376047677
scalar RSUExampleScenario2.node[3].nic.mac1609_4 	throughputMedioBPS 	936004.4274146
scalar RSUExampleScenario2.node[11].nic.mac1609_4 	TotalLostPackets 	470
scalar RSUExampleScenario2.node[11].nic.mac1609_4 	delayMedio 	0.006050287847
scalar RSUExampleScenario2.node[11].nic.mac1609_4 	throughputMedioBPS 	676992.58346466
scalar RSUExampleScenario2.node[17].nic.mac1609_4 	TotalLostPackets 	136
scalar RSUExampleScenario2.node[17].nic.mac1609_4 	delayMedio 	0.002585364388
scalar RSUExampleScenario2.node[17].nic.mac1609_4 	throughputMedioBPS 	1584302.7849352
scalar RSUExampleScenario2.node[27].nic.mac1609_4 	TotalLostPackets 	119
scalar RSUExampleScenario2.node[27].nic.mac1609_4 	delayMedio 	0.011773476678
scalar RSUExampleScenario2.node[27].nic.mac1609_4 	throughputMedioBPS 	347900.63395659
scalar RSUExampleScenario2.node[12].nic.mac1609_4 	TotalLostPackets 	427
scalar RSUExampleScenario2.node[12].nic.mac1609_4 	delayMedio 	0.005899185312
scalar RSUExampleScenario2.node[12].nic.mac1609_4 	throughputMedioBPS 	694333.16353497
scalar RSUExampleScenario2.node[18].nic.mac1609_4 	TotalLostPackets 	458
scalar RSUExampleScenario2.node[18].nic.mac1609_4 	delayMedio 	0.003539716693
scalar RSUExampleScenario2.node[18].nic.mac1609_4 	throughputMedioBPS 	1157154.7543053
scalar RSUExampleScenario2.node[22].nic.mac1609_4 	TotalLostPackets 	786
scalar RSUExampleScenario2.node[22].nic.mac1609_4 	delayMedio 	0.004745795348
scalar RSUExampleScenario2.node[22].nic.mac1609_4 	throughputMedioBPS 	863079.77896234
scalar RSUExampleScenario2.node[28].nic.mac1609_4 	TotalLostPackets 	572
scalar RSUExampleScenario2.node[28].nic.mac1609_4 	delayMedio 	0.006650052222
scalar RSUExampleScenario2.node[28].nic.mac1609_4 	throughputMedioBPS 	615935.01270773
scalar RSUExampleScenario2.node[33].nic.mac1609_4 	TotalLostPackets 	53
scalar RSUExampleScenario2.node[33].nic.mac1609_4 	delayMedio 	0.000871455044
scalar RSUExampleScenario2.node[33].nic.mac1609_4 	throughputMedioBPS 	4700185.0853729
scalar RSUExampleScenario2.node[1].nic.mac1609_4 	TotalLostPackets 	1456
scalar RSUExampleScenario2.node[1].nic.mac1609_4 	delayMedio 	0.004332883842
scalar RSUExampleScenario2.node[1].nic.mac1609_4 	throughputMedioBPS 	945328.82692429
scalar RSUExampleScenario2.node[29].nic.mac1609_4 	TotalLostPackets 	7
scalar RSUExampleScenario2.node[29].nic.mac1609_4 	delayMedio 	0.010892088152
scalar RSUExampleScenario2.node[29].nic.mac1609_4 	throughputMedioBPS 	376052.77729096
scalar RSUExampleScenario2.node[34].nic.mac1609_4 	TotalLostPackets 	121
scalar RSUExampleScenario2.node[34].nic.mac1609_4 	delayMedio 	0.000919681731
scalar RSUExampleScenario2.node[34].nic.mac1609_4 	throughputMedioBPS 	4453714.653403
scalar RSUExampleScenario2.node[9].nic.mac1609_4 	TotalLostPackets 	266
scalar RSUExampleScenario2.node[9].nic.mac1609_4 	delayMedio 	0.005001850536
scalar RSUExampleScenario2.node[9].nic.mac1609_4 	throughputMedioBPS 	818896.92039122
scalar RSUExampleScenario2.node[15].nic.mac1609_4 	TotalLostPackets 	394
scalar RSUExampleScenario2.node[15].nic.mac1609_4 	delayMedio 	0.005178545859
scalar RSUExampleScenario2.node[15].nic.mac1609_4 	throughputMedioBPS 	790955.62959334
scalar RSUExampleScenario2.node[20].nic.mac1609_4 	TotalLostPackets 	126
scalar RSUExampleScenario2.node[20].nic.mac1609_4 	delayMedio 	0.002608439945
scalar RSUExampleScenario2.node[20].nic.mac1609_4 	throughputMedioBPS 	1570287.2548099
scalar RSUExampleScenario2.node[23].nic.mac1609_4 	TotalLostPackets 	1328
scalar RSUExampleScenario2.node[23].nic.mac1609_4 	delayMedio 	0.004201649599
scalar RSUExampleScenario2.node[23].nic.mac1609_4 	throughputMedioBPS 	974855.20937397
scalar RSUExampleScenario2.node[25].nic.mac1609_4 	TotalLostPackets 	319
scalar RSUExampleScenario2.node[25].nic.mac1609_4 	delayMedio 	0.002588735962
scalar RSUExampleScenario2.node[25].nic.mac1609_4 	throughputMedioBPS 	1582239.3865693
scalar RSUExampleScenario2.node[4].nic.mac1609_4 	TotalLostPackets 	1161
scalar RSUExampleScenario2.node[4].nic.mac1609_4 	delayMedio 	0.004535926105
scalar RSUExampleScenario2.node[4].nic.mac1609_4 	throughputMedioBPS 	903012.94721648
scalar RSUExampleScenario2.node[19].nic.mac1609_4 	TotalLostPackets 	189
scalar RSUExampleScenario2.node[19].nic.mac1609_4 	delayMedio 	0.003927525
scalar RSUExampleScenario2.node[19].nic.mac1609_4 	throughputMedioBPS 	1042895.9713896
scalar RSUExampleScenario2.node[21].nic.mac1609_4 	TotalLostPackets 	262
scalar RSUExampleScenario2.node[21].nic.mac1609_4 	delayMedio 	0.002667749221
scalar RSUExampleScenario2.node[21].nic.mac1609_4 	throughputMedioBPS 	1535376.7015754
scalar RSUExampleScenario2.node[24].nic.mac1609_4 	TotalLostPackets 	100
scalar RSUExampleScenario2.node[24].nic.mac1609_4 	delayMedio 	0.002133197774
scalar RSUExampleScenario2.node[24].nic.mac1609_4 	throughputMedioBPS 	1920122.0114674
scalar RSUExampleScenario2.node[26].nic.mac1609_4 	TotalLostPackets 	872
scalar RSUExampleScenario2.node[26].nic.mac1609_4 	delayMedio 	0.004948065003
scalar RSUExampleScenario2.node[26].nic.mac1609_4 	throughputMedioBPS 	827798.34089379
scalar RSUExampleScenario2.node[30].nic.mac1609_4 	TotalLostPackets 	45
scalar RSUExampleScenario2.node[30].nic.mac1609_4 	delayMedio 	0.002049468473
scalar RSUExampleScenario2.node[30].nic.mac1609_4 	throughputMedioBPS 	1998566.9717142
scalar RSUExampleScenario2.node[31].nic.mac1609_4 	TotalLostPackets 	1
scalar RSUExampleScenario2.node[31].nic.mac1609_4 	delayMedio 	0.015136727687
scalar RSUExampleScenario2.node[31].nic.mac1609_4 	throughputMedioBPS 	270600.09829967
scalar RSUExampleScenario2.node[32].nic.mac1609_4 	TotalLostPackets 	49
scalar RSUExampleScenario2.node[32].nic.mac1609_4 	delayMedio 	0.011423283817
scalar RSUExampleScenario2.node[32].nic.mac1609_4 	throughputMedioBPS 	358565.89625632
scalar RSUExampleScenario2.node[35].nic.mac1609_4 	TotalLostPackets 	60
scalar RSUExampleScenario2.node[35].nic.mac1609_4 	delayMedio 	0.000818398432
scalar RSUExampleScenario2.node[35].nic.mac1609_4 	throughputMedioBPS 	5004897.1744032
scalar RSUExampleScenario2.node[10].nic.mac1609_4 	TotalLostPackets 	389
scalar RSUExampleScenario2.node[10].nic.mac1609_4 	delayMedio 	0.005699572975
scalar RSUExampleScenario2.node[10].nic.mac1609_4 	throughputMedioBPS 	718650.33013207
scalar RSUExampleScenario2.node[13].nic.mac1609_4 	TotalLostPackets 	464
scalar RSUExampleScenario2.node[13].nic.mac1609_4 	delayMedio 	0.005757627784
scalar RSUExampleScenario2.node[13].nic.mac1609_4 	throughputMedioBPS 	711404.09797653
scalar RSUExampleScenario2.node[16].nic.mac1609_4 	TotalLostPackets 	397
scalar RSUExampleScenario2.node[16].nic.mac1609_4 	delayMedio 	0.005279756324
scalar RSUExampleScenario2.node[16].nic.mac1609_4 	throughputMedioBPS 	775793.37915743
