version 2
run v1-722-20171213-15:12:29-27625
attr configname v1
attr cwmax 4096
attr cwmin 512
attr datetime 20171213-15:12:29
attr experiment v1
attr inifile omnetpp.ini
attr iterationvars "$cwmin=512, $cwmax=4096, $slotlength=80, $txPower=100"
attr iterationvars2 "$cwmin=512, $cwmax=4096, $slotlength=80, $txPower=100, $repetition=0"
attr measurement "$cwmin=512, $cwmax=4096, $slotlength=80, $txPower=100"
attr network RSUExampleScenario2
attr processid 27625
attr repetition 0
attr replication #0
attr resultdir results
attr runnumber 722
attr seedset 722
attr slotlength 80
attr txPower 100
param **.coreDebug true
param **.debug true
param *.**.nic.mac1609_4.bitrate 6Mbps
param *.**.nic.mac1609_4.cwmax_ "${cwmax=1024, 2048, 4096}"
param *.**.nic.mac1609_4.cwmin_ ${cwmin=512}
param *.**.nic.mac1609_4.slotlength_ "${slotlength=5..100 step 5}ms"
param *.**.nic.mac1609_4.txPower "${txPower=1.26, 2.51, 3.98, 10, 15.85, 25.12, 50.12, 100, 251.19, 501.19, 794.33, 1258.93, 1584.89}mW"
param *.**.nic.mac1609_4.useServiceChannel false
param *.**.nic.phy80211p.analogueModels "xmldoc(\"config.xml\")"
param *.**.nic.phy80211p.decider "xmldoc(\"config.xml\")"
param *.**.nic.phy80211p.sensitivity -89dBm
param *.**.nic.phy80211p.thermalNoise -110dBm
param *.**.nic.phy80211p.usePropagationDelay true
param *.**.nic.phy80211p.useThermalNoise true
param *.annotations.draw false
param *.connectionManager.alpha 2.0
param *.connectionManager.carrierFrequency "5.890e9 Hz"
param *.connectionManager.drawMaxIntfDist false
param *.connectionManager.maxInterfDist 2600m
param *.connectionManager.pMax 20mW
param *.connectionManager.sat -89dBm
param *.connectionManager.sendDirect true
param *.manager.autoShutdown true
param *.manager.host "\"localhost\""
param *.manager.launchConfig "xmldoc(\"osm.launchd.xml\")"
param *.manager.margin 25
param *.manager.moduleDisplayString "\"\""
param *.manager.moduleName "\"node\""
param *.manager.moduleType "\"org.car2x.veins.nodes.Car\""
param *.manager.port 9999
param *.manager.updateInterval 1s
param *.node[*].appl.beaconInterval "0.1 s"
param *.node[*].appl.beaconLengthBits "3960 bit"
param *.node[*].appl.beaconPriority 3
param *.node[*].appl.dataLengthBits "3960 bit"
param *.node[*].appl.dataOnSch false
param *.node[*].appl.dataPriority 2
param *.node[*].appl.debug false
param *.node[*].appl.headerLength "80 bit"
param *.node[*].appl.maxOffset "0.005 s"
param *.node[*].appl.sendBeacons true
param *.node[*].appl.sendData false
param *.node[*].applType "\"TraCIDemo11p\""
param *.node[*].mobilityType "\"TraCIMobility\""
param *.node[*].mobilityType.debug true
param *.node[*].veinsmobility.x 0
param *.node[*].veinsmobility.y 0
param *.node[*].veinsmobility.z 1.895
param *.node[*].veinsmobilityType "\"org.car2x.veins.modules.mobility.traci.TraCIMobility\""
param *.node[*].veinsmobilityType.debug true
param *.obstacles.debug false
param *.playgroundSizeX 2000m
param *.playgroundSizeY 2000m
param *.playgroundSizeZ 50m
param *.world.use2D false
param *.world.useTorus false

scalar . 	cwmax 	4096
scalar . 	cwmin 	512
scalar . 	slotlength 	80
scalar . 	txPower 	100
scalar RSUExampleScenario2.node[6].nic.mac1609_4 	TotalLostPackets 	0
scalar RSUExampleScenario2.node[6].nic.mac1609_4 	delayMedio 	0.000723260813
scalar RSUExampleScenario2.node[6].nic.mac1609_4 	throughputMedioBPS 	5663240.6010288
scalar RSUExampleScenario2.node[5].nic.mac1609_4 	TotalLostPackets 	0
scalar RSUExampleScenario2.node[5].nic.mac1609_4 	delayMedio 	0.005614453916
scalar RSUExampleScenario2.node[5].nic.mac1609_4 	throughputMedioBPS 	729545.57310927
scalar RSUExampleScenario2.node[0].nic.mac1609_4 	TotalLostPackets 	0
scalar RSUExampleScenario2.node[0].nic.mac1609_4 	delayMedio 	0.005475460155
scalar RSUExampleScenario2.node[0].nic.mac1609_4 	throughputMedioBPS 	748064.98158303
scalar RSUExampleScenario2.node[14].nic.mac1609_4 	TotalLostPackets 	50
scalar RSUExampleScenario2.node[14].nic.mac1609_4 	delayMedio 	0.006631360518
scalar RSUExampleScenario2.node[14].nic.mac1609_4 	throughputMedioBPS 	617671.13839204
scalar RSUExampleScenario2.node[7].nic.mac1609_4 	TotalLostPackets 	50
scalar RSUExampleScenario2.node[7].nic.mac1609_4 	delayMedio 	0.006285985496
scalar RSUExampleScenario2.node[7].nic.mac1609_4 	throughputMedioBPS 	651608.24859498
scalar RSUExampleScenario2.node[2].nic.mac1609_4 	TotalLostPackets 	100
scalar RSUExampleScenario2.node[2].nic.mac1609_4 	delayMedio 	0.005848182123
scalar RSUExampleScenario2.node[2].nic.mac1609_4 	throughputMedioBPS 	700388.58469101
scalar RSUExampleScenario2.node[8].nic.mac1609_4 	TotalLostPackets 	100
scalar RSUExampleScenario2.node[8].nic.mac1609_4 	delayMedio 	0.006112868212
scalar RSUExampleScenario2.node[8].nic.mac1609_4 	throughputMedioBPS 	670061.88549633
scalar RSUExampleScenario2.node[3].nic.mac1609_4 	TotalLostPackets 	100
scalar RSUExampleScenario2.node[3].nic.mac1609_4 	delayMedio 	0.005213510579
scalar RSUExampleScenario2.node[3].nic.mac1609_4 	throughputMedioBPS 	785651.03837335
scalar RSUExampleScenario2.node[11].nic.mac1609_4 	TotalLostPackets 	100
scalar RSUExampleScenario2.node[11].nic.mac1609_4 	delayMedio 	0.005712609326
scalar RSUExampleScenario2.node[11].nic.mac1609_4 	throughputMedioBPS 	717010.34788949
scalar RSUExampleScenario2.node[17].nic.mac1609_4 	TotalLostPackets 	0
scalar RSUExampleScenario2.node[17].nic.mac1609_4 	delayMedio 	0.002815549186
scalar RSUExampleScenario2.node[17].nic.mac1609_4 	throughputMedioBPS 	1454778.3503566
scalar RSUExampleScenario2.node[27].nic.mac1609_4 	TotalLostPackets 	84
scalar RSUExampleScenario2.node[27].nic.mac1609_4 	delayMedio 	0.005868271472
scalar RSUExampleScenario2.node[27].nic.mac1609_4 	throughputMedioBPS 	697990.88526242
scalar RSUExampleScenario2.node[12].nic.mac1609_4 	TotalLostPackets 	100
scalar RSUExampleScenario2.node[12].nic.mac1609_4 	delayMedio 	0.005707582533
scalar RSUExampleScenario2.node[12].nic.mac1609_4 	throughputMedioBPS 	717641.83464114
scalar RSUExampleScenario2.node[18].nic.mac1609_4 	TotalLostPackets 	100
scalar RSUExampleScenario2.node[18].nic.mac1609_4 	delayMedio 	0.003501832327
scalar RSUExampleScenario2.node[18].nic.mac1609_4 	throughputMedioBPS 	1169673.3645458
scalar RSUExampleScenario2.node[22].nic.mac1609_4 	TotalLostPackets 	100
scalar RSUExampleScenario2.node[22].nic.mac1609_4 	delayMedio 	0.004325552894
scalar RSUExampleScenario2.node[22].nic.mac1609_4 	throughputMedioBPS 	946930.97056142
scalar RSUExampleScenario2.node[28].nic.mac1609_4 	TotalLostPackets 	100
scalar RSUExampleScenario2.node[28].nic.mac1609_4 	delayMedio 	0.006214021686
scalar RSUExampleScenario2.node[28].nic.mac1609_4 	throughputMedioBPS 	659154.44253347
scalar RSUExampleScenario2.node[33].nic.mac1609_4 	TotalLostPackets 	0
scalar RSUExampleScenario2.node[33].nic.mac1609_4 	delayMedio 	0.000816585409
scalar RSUExampleScenario2.node[33].nic.mac1609_4 	throughputMedioBPS 	5016009.2898545
scalar RSUExampleScenario2.node[1].nic.mac1609_4 	TotalLostPackets 	100
scalar RSUExampleScenario2.node[1].nic.mac1609_4 	delayMedio 	0.005179349636
scalar RSUExampleScenario2.node[1].nic.mac1609_4 	throughputMedioBPS 	790832.8821548
scalar RSUExampleScenario2.node[29].nic.mac1609_4 	TotalLostPackets 	10
scalar RSUExampleScenario2.node[29].nic.mac1609_4 	delayMedio 	0.005450375855
scalar RSUExampleScenario2.node[29].nic.mac1609_4 	throughputMedioBPS 	751507.80587486
scalar RSUExampleScenario2.node[34].nic.mac1609_4 	TotalLostPackets 	0
scalar RSUExampleScenario2.node[34].nic.mac1609_4 	delayMedio 	0.000814041931
scalar RSUExampleScenario2.node[34].nic.mac1609_4 	throughputMedioBPS 	5031681.8369033
scalar RSUExampleScenario2.node[9].nic.mac1609_4 	TotalLostPackets 	100
scalar RSUExampleScenario2.node[9].nic.mac1609_4 	delayMedio 	0.005483593397
scalar RSUExampleScenario2.node[9].nic.mac1609_4 	throughputMedioBPS 	746955.45484137
scalar RSUExampleScenario2.node[15].nic.mac1609_4 	TotalLostPackets 	98
scalar RSUExampleScenario2.node[15].nic.mac1609_4 	delayMedio 	0.006000074782
scalar RSUExampleScenario2.node[15].nic.mac1609_4 	throughputMedioBPS 	682658.15821216
scalar RSUExampleScenario2.node[20].nic.mac1609_4 	TotalLostPackets 	1
scalar RSUExampleScenario2.node[20].nic.mac1609_4 	delayMedio 	0.003181123274
scalar RSUExampleScenario2.node[20].nic.mac1609_4 	throughputMedioBPS 	1287595.496216
scalar RSUExampleScenario2.node[23].nic.mac1609_4 	TotalLostPackets 	100
scalar RSUExampleScenario2.node[23].nic.mac1609_4 	delayMedio 	0.004326387361
scalar RSUExampleScenario2.node[23].nic.mac1609_4 	throughputMedioBPS 	946748.32782084
scalar RSUExampleScenario2.node[25].nic.mac1609_4 	TotalLostPackets 	60
scalar RSUExampleScenario2.node[25].nic.mac1609_4 	delayMedio 	0.00501031251
scalar RSUExampleScenario2.node[25].nic.mac1609_4 	throughputMedioBPS 	817513.87592585
scalar RSUExampleScenario2.node[4].nic.mac1609_4 	TotalLostPackets 	100
scalar RSUExampleScenario2.node[4].nic.mac1609_4 	delayMedio 	0.005242536348
scalar RSUExampleScenario2.node[4].nic.mac1609_4 	throughputMedioBPS 	781301.21149955
scalar RSUExampleScenario2.node[19].nic.mac1609_4 	TotalLostPackets 	100
scalar RSUExampleScenario2.node[19].nic.mac1609_4 	delayMedio 	0.003782905887
scalar RSUExampleScenario2.node[19].nic.mac1609_4 	throughputMedioBPS 	1082765.5040403
scalar RSUExampleScenario2.node[21].nic.mac1609_4 	TotalLostPackets 	100
scalar RSUExampleScenario2.node[21].nic.mac1609_4 	delayMedio 	0.003977727534
scalar RSUExampleScenario2.node[21].nic.mac1609_4 	throughputMedioBPS 	1029733.6772052
scalar RSUExampleScenario2.node[24].nic.mac1609_4 	TotalLostPackets 	2
scalar RSUExampleScenario2.node[24].nic.mac1609_4 	delayMedio 	0.003605649366
scalar RSUExampleScenario2.node[24].nic.mac1609_4 	throughputMedioBPS 	1135995.0965205
scalar RSUExampleScenario2.node[26].nic.mac1609_4 	TotalLostPackets 	100
scalar RSUExampleScenario2.node[26].nic.mac1609_4 	delayMedio 	0.005354473717
scalar RSUExampleScenario2.node[26].nic.mac1609_4 	throughputMedioBPS 	764967.80380181
scalar RSUExampleScenario2.node[30].nic.mac1609_4 	TotalLostPackets 	0
scalar RSUExampleScenario2.node[30].nic.mac1609_4 	delayMedio 	0.005560104047
scalar RSUExampleScenario2.node[30].nic.mac1609_4 	throughputMedioBPS 	736676.86170525
scalar RSUExampleScenario2.node[31].nic.mac1609_4 	TotalLostPackets 	0
scalar RSUExampleScenario2.node[31].nic.mac1609_4 	delayMedio 	0.006542733028
scalar RSUExampleScenario2.node[31].nic.mac1609_4 	throughputMedioBPS 	626038.07649858
scalar RSUExampleScenario2.node[32].nic.mac1609_4 	TotalLostPackets 	0
scalar RSUExampleScenario2.node[32].nic.mac1609_4 	delayMedio 	0.000814364587
scalar RSUExampleScenario2.node[32].nic.mac1609_4 	throughputMedioBPS 	5029688.2579341
scalar RSUExampleScenario2.node[35].nic.mac1609_4 	TotalLostPackets 	0
scalar RSUExampleScenario2.node[35].nic.mac1609_4 	delayMedio 	0.000811532385
scalar RSUExampleScenario2.node[35].nic.mac1609_4 	throughputMedioBPS 	5047241.5818846
scalar RSUExampleScenario2.node[10].nic.mac1609_4 	TotalLostPackets 	100
scalar RSUExampleScenario2.node[10].nic.mac1609_4 	delayMedio 	0.005596813189
scalar RSUExampleScenario2.node[10].nic.mac1609_4 	throughputMedioBPS 	731845.04501963
scalar RSUExampleScenario2.node[13].nic.mac1609_4 	TotalLostPackets 	100
scalar RSUExampleScenario2.node[13].nic.mac1609_4 	delayMedio 	0.005852940332
scalar RSUExampleScenario2.node[13].nic.mac1609_4 	throughputMedioBPS 	699819.19646401
scalar RSUExampleScenario2.node[16].nic.mac1609_4 	TotalLostPackets 	100
scalar RSUExampleScenario2.node[16].nic.mac1609_4 	delayMedio 	0.003778905511
scalar RSUExampleScenario2.node[16].nic.mac1609_4 	throughputMedioBPS 	1083911.7274096
