version 2
run v1-588-20171213-05:20:20-27625
attr configname v1
attr cwmax 4096
attr cwmin 512
attr datetime 20171213-05:20:20
attr experiment v1
attr inifile omnetpp.ini
attr iterationvars "$cwmin=512, $cwmax=4096, $slotlength=30, $txPower=10"
attr iterationvars2 "$cwmin=512, $cwmax=4096, $slotlength=30, $txPower=10, $repetition=0"
attr measurement "$cwmin=512, $cwmax=4096, $slotlength=30, $txPower=10"
attr network RSUExampleScenario2
attr processid 27625
attr repetition 0
attr replication #0
attr resultdir results
attr runnumber 588
attr seedset 588
attr slotlength 30
attr txPower 10
param **.coreDebug true
param **.debug true
param *.**.nic.mac1609_4.bitrate 6Mbps
param *.**.nic.mac1609_4.cwmax_ "${cwmax=1024, 2048, 4096}"
param *.**.nic.mac1609_4.cwmin_ ${cwmin=512}
param *.**.nic.mac1609_4.slotlength_ "${slotlength=5..100 step 5}ms"
param *.**.nic.mac1609_4.txPower "${txPower=1.26, 2.51, 3.98, 10, 15.85, 25.12, 50.12, 100, 251.19, 501.19, 794.33, 1258.93, 1584.89}mW"
param *.**.nic.mac1609_4.useServiceChannel false
param *.**.nic.phy80211p.analogueModels "xmldoc(\"config.xml\")"
param *.**.nic.phy80211p.decider "xmldoc(\"config.xml\")"
param *.**.nic.phy80211p.sensitivity -89dBm
param *.**.nic.phy80211p.thermalNoise -110dBm
param *.**.nic.phy80211p.usePropagationDelay true
param *.**.nic.phy80211p.useThermalNoise true
param *.annotations.draw false
param *.connectionManager.alpha 2.0
param *.connectionManager.carrierFrequency "5.890e9 Hz"
param *.connectionManager.drawMaxIntfDist false
param *.connectionManager.maxInterfDist 2600m
param *.connectionManager.pMax 20mW
param *.connectionManager.sat -89dBm
param *.connectionManager.sendDirect true
param *.manager.autoShutdown true
param *.manager.host "\"localhost\""
param *.manager.launchConfig "xmldoc(\"osm.launchd.xml\")"
param *.manager.margin 25
param *.manager.moduleDisplayString "\"\""
param *.manager.moduleName "\"node\""
param *.manager.moduleType "\"org.car2x.veins.nodes.Car\""
param *.manager.port 9999
param *.manager.updateInterval 1s
param *.node[*].appl.beaconInterval "0.1 s"
param *.node[*].appl.beaconLengthBits "3960 bit"
param *.node[*].appl.beaconPriority 3
param *.node[*].appl.dataLengthBits "3960 bit"
param *.node[*].appl.dataOnSch false
param *.node[*].appl.dataPriority 2
param *.node[*].appl.debug false
param *.node[*].appl.headerLength "80 bit"
param *.node[*].appl.maxOffset "0.005 s"
param *.node[*].appl.sendBeacons true
param *.node[*].appl.sendData false
param *.node[*].applType "\"TraCIDemo11p\""
param *.node[*].mobilityType "\"TraCIMobility\""
param *.node[*].mobilityType.debug true
param *.node[*].veinsmobility.x 0
param *.node[*].veinsmobility.y 0
param *.node[*].veinsmobility.z 1.895
param *.node[*].veinsmobilityType "\"org.car2x.veins.modules.mobility.traci.TraCIMobility\""
param *.node[*].veinsmobilityType.debug true
param *.obstacles.debug false
param *.playgroundSizeX 2000m
param *.playgroundSizeY 2000m
param *.playgroundSizeZ 50m
param *.world.use2D false
param *.world.useTorus false

scalar . 	cwmax 	4096
scalar . 	cwmin 	512
scalar . 	slotlength 	30
scalar . 	txPower 	10
scalar RSUExampleScenario2.node[5].nic.mac1609_4 	TotalLostPackets 	24
scalar RSUExampleScenario2.node[5].nic.mac1609_4 	delayMedio 	0.008080937806
scalar RSUExampleScenario2.node[5].nic.mac1609_4 	throughputMedioBPS 	506871.86290907
scalar RSUExampleScenario2.node[0].nic.mac1609_4 	TotalLostPackets 	70
scalar RSUExampleScenario2.node[0].nic.mac1609_4 	delayMedio 	0.004399316427
scalar RSUExampleScenario2.node[0].nic.mac1609_4 	throughputMedioBPS 	931053.73698534
scalar RSUExampleScenario2.node[14].nic.mac1609_4 	TotalLostPackets 	667
scalar RSUExampleScenario2.node[14].nic.mac1609_4 	delayMedio 	0.005267789557
scalar RSUExampleScenario2.node[14].nic.mac1609_4 	throughputMedioBPS 	777555.73864798
scalar RSUExampleScenario2.node[7].nic.mac1609_4 	TotalLostPackets 	12
scalar RSUExampleScenario2.node[7].nic.mac1609_4 	delayMedio 	0.009165405633
scalar RSUExampleScenario2.node[7].nic.mac1609_4 	throughputMedioBPS 	446897.84214847
scalar RSUExampleScenario2.node[2].nic.mac1609_4 	TotalLostPackets 	62
scalar RSUExampleScenario2.node[2].nic.mac1609_4 	delayMedio 	0.008881115917
scalar RSUExampleScenario2.node[2].nic.mac1609_4 	throughputMedioBPS 	461203.30350971
scalar RSUExampleScenario2.node[8].nic.mac1609_4 	TotalLostPackets 	1
scalar RSUExampleScenario2.node[8].nic.mac1609_4 	delayMedio 	0.003103722544
scalar RSUExampleScenario2.node[8].nic.mac1609_4 	throughputMedioBPS 	1319705.592774
scalar RSUExampleScenario2.node[3].nic.mac1609_4 	TotalLostPackets 	324
scalar RSUExampleScenario2.node[3].nic.mac1609_4 	delayMedio 	0.009703104641
scalar RSUExampleScenario2.node[3].nic.mac1609_4 	throughputMedioBPS 	422132.93082494
scalar RSUExampleScenario2.node[11].nic.mac1609_4 	TotalLostPackets 	6
scalar RSUExampleScenario2.node[11].nic.mac1609_4 	delayMedio 	0.012216406204
scalar RSUExampleScenario2.node[11].nic.mac1609_4 	throughputMedioBPS 	335286.82099052
scalar RSUExampleScenario2.node[17].nic.mac1609_4 	TotalLostPackets 	988
scalar RSUExampleScenario2.node[17].nic.mac1609_4 	delayMedio 	0.00715080567
scalar RSUExampleScenario2.node[17].nic.mac1609_4 	throughputMedioBPS 	572802.58884303
scalar RSUExampleScenario2.node[27].nic.mac1609_4 	TotalLostPackets 	1
scalar RSUExampleScenario2.node[27].nic.mac1609_4 	delayMedio 	0.000721836972
scalar RSUExampleScenario2.node[27].nic.mac1609_4 	throughputMedioBPS 	5674411.4820934
scalar RSUExampleScenario2.node[12].nic.mac1609_4 	TotalLostPackets 	12
scalar RSUExampleScenario2.node[12].nic.mac1609_4 	delayMedio 	0.012859991137
scalar RSUExampleScenario2.node[12].nic.mac1609_4 	throughputMedioBPS 	318507.21795322
scalar RSUExampleScenario2.node[18].nic.mac1609_4 	TotalLostPackets 	327
scalar RSUExampleScenario2.node[18].nic.mac1609_4 	delayMedio 	0.010382303886
scalar RSUExampleScenario2.node[18].nic.mac1609_4 	throughputMedioBPS 	394517.44478863
scalar RSUExampleScenario2.node[22].nic.mac1609_4 	TotalLostPackets 	158
scalar RSUExampleScenario2.node[22].nic.mac1609_4 	delayMedio 	0.010930311552
scalar RSUExampleScenario2.node[22].nic.mac1609_4 	throughputMedioBPS 	374737.71726617
scalar RSUExampleScenario2.node[28].nic.mac1609_4 	TotalLostPackets 	67
scalar RSUExampleScenario2.node[28].nic.mac1609_4 	delayMedio 	0.018518333098
scalar RSUExampleScenario2.node[28].nic.mac1609_4 	throughputMedioBPS 	221186.21466724
scalar RSUExampleScenario2.node[1].nic.mac1609_4 	TotalLostPackets 	318
scalar RSUExampleScenario2.node[1].nic.mac1609_4 	delayMedio 	0.010262119377
scalar RSUExampleScenario2.node[1].nic.mac1609_4 	throughputMedioBPS 	399137.82422099
scalar RSUExampleScenario2.node[29].nic.mac1609_4 	TotalLostPackets 	0
scalar RSUExampleScenario2.node[29].nic.mac1609_4 	delayMedio 	0.000721479761
scalar RSUExampleScenario2.node[29].nic.mac1609_4 	throughputMedioBPS 	5677220.9269949
scalar RSUExampleScenario2.node[34].nic.mac1609_4 	TotalLostPackets 	240
scalar RSUExampleScenario2.node[34].nic.mac1609_4 	delayMedio 	0.000766149258
scalar RSUExampleScenario2.node[34].nic.mac1609_4 	throughputMedioBPS 	5346216.7582254
scalar RSUExampleScenario2.node[9].nic.mac1609_4 	TotalLostPackets 	529
scalar RSUExampleScenario2.node[9].nic.mac1609_4 	delayMedio 	0.008770097247
scalar RSUExampleScenario2.node[9].nic.mac1609_4 	throughputMedioBPS 	467041.57146979
scalar RSUExampleScenario2.node[15].nic.mac1609_4 	TotalLostPackets 	0
scalar RSUExampleScenario2.node[15].nic.mac1609_4 	delayMedio 	0.011094175687
scalar RSUExampleScenario2.node[15].nic.mac1609_4 	throughputMedioBPS 	369202.73444077
scalar RSUExampleScenario2.node[20].nic.mac1609_4 	TotalLostPackets 	0
scalar RSUExampleScenario2.node[20].nic.mac1609_4 	delayMedio 	0.004930654065
scalar RSUExampleScenario2.node[20].nic.mac1609_4 	throughputMedioBPS 	830721.43094797
scalar RSUExampleScenario2.node[23].nic.mac1609_4 	TotalLostPackets 	131
scalar RSUExampleScenario2.node[23].nic.mac1609_4 	delayMedio 	0.009095561697
scalar RSUExampleScenario2.node[23].nic.mac1609_4 	throughputMedioBPS 	450329.52734935
scalar RSUExampleScenario2.node[25].nic.mac1609_4 	TotalLostPackets 	75
scalar RSUExampleScenario2.node[25].nic.mac1609_4 	delayMedio 	0.010881848794
scalar RSUExampleScenario2.node[25].nic.mac1609_4 	throughputMedioBPS 	376406.62697872
scalar RSUExampleScenario2.node[4].nic.mac1609_4 	TotalLostPackets 	273
scalar RSUExampleScenario2.node[4].nic.mac1609_4 	delayMedio 	0.009668856572
scalar RSUExampleScenario2.node[4].nic.mac1609_4 	throughputMedioBPS 	423628.16837139
scalar RSUExampleScenario2.node[19].nic.mac1609_4 	TotalLostPackets 	0
scalar RSUExampleScenario2.node[19].nic.mac1609_4 	delayMedio 	0.011350095244
scalar RSUExampleScenario2.node[19].nic.mac1609_4 	throughputMedioBPS 	360878.0289573
scalar RSUExampleScenario2.node[21].nic.mac1609_4 	TotalLostPackets 	376
scalar RSUExampleScenario2.node[21].nic.mac1609_4 	delayMedio 	0.008889106912
scalar RSUExampleScenario2.node[21].nic.mac1609_4 	throughputMedioBPS 	460788.69797754
scalar RSUExampleScenario2.node[24].nic.mac1609_4 	TotalLostPackets 	2
scalar RSUExampleScenario2.node[24].nic.mac1609_4 	delayMedio 	0.005395959836
scalar RSUExampleScenario2.node[24].nic.mac1609_4 	throughputMedioBPS 	759086.4506874
scalar RSUExampleScenario2.node[26].nic.mac1609_4 	TotalLostPackets 	82
scalar RSUExampleScenario2.node[26].nic.mac1609_4 	delayMedio 	0.010856368201
scalar RSUExampleScenario2.node[26].nic.mac1609_4 	throughputMedioBPS 	377290.07750962
scalar RSUExampleScenario2.node[30].nic.mac1609_4 	TotalLostPackets 	63
scalar RSUExampleScenario2.node[30].nic.mac1609_4 	delayMedio 	0.010742322348
scalar RSUExampleScenario2.node[30].nic.mac1609_4 	throughputMedioBPS 	381295.57718249
scalar RSUExampleScenario2.node[31].nic.mac1609_4 	TotalLostPackets 	0
scalar RSUExampleScenario2.node[31].nic.mac1609_4 	delayMedio 	0.000721442161
scalar RSUExampleScenario2.node[31].nic.mac1609_4 	throughputMedioBPS 	5677516.8141355
scalar RSUExampleScenario2.node[32].nic.mac1609_4 	TotalLostPackets 	0
scalar RSUExampleScenario2.node[32].nic.mac1609_4 	delayMedio 	0.028043871749
scalar RSUExampleScenario2.node[32].nic.mac1609_4 	throughputMedioBPS 	146056.86535106
scalar RSUExampleScenario2.node[35].nic.mac1609_4 	TotalLostPackets 	46
scalar RSUExampleScenario2.node[35].nic.mac1609_4 	delayMedio 	0.000721449015
scalar RSUExampleScenario2.node[35].nic.mac1609_4 	throughputMedioBPS 	5677462.8786524
scalar RSUExampleScenario2.node[10].nic.mac1609_4 	TotalLostPackets 	1042
scalar RSUExampleScenario2.node[10].nic.mac1609_4 	delayMedio 	0.009244134083
scalar RSUExampleScenario2.node[10].nic.mac1609_4 	throughputMedioBPS 	443091.79887458
scalar RSUExampleScenario2.node[13].nic.mac1609_4 	TotalLostPackets 	8
scalar RSUExampleScenario2.node[13].nic.mac1609_4 	delayMedio 	0.014574416209
scalar RSUExampleScenario2.node[13].nic.mac1609_4 	throughputMedioBPS 	281040.41639785
scalar RSUExampleScenario2.node[16].nic.mac1609_4 	TotalLostPackets 	850
scalar RSUExampleScenario2.node[16].nic.mac1609_4 	delayMedio 	0.01150093851
scalar RSUExampleScenario2.node[16].nic.mac1609_4 	throughputMedioBPS 	356144.8482169
