version 2
run v1-497-20171212-22:38:50-27625
attr configname v1
attr cwmax 2048
attr cwmin 512
attr datetime 20171212-22:38:50
attr experiment v1
attr inifile omnetpp.ini
attr iterationvars "$cwmin=512, $cwmax=2048, $slotlength=95, $txPower=10"
attr iterationvars2 "$cwmin=512, $cwmax=2048, $slotlength=95, $txPower=10, $repetition=0"
attr measurement "$cwmin=512, $cwmax=2048, $slotlength=95, $txPower=10"
attr network RSUExampleScenario2
attr processid 27625
attr repetition 0
attr replication #0
attr resultdir results
attr runnumber 497
attr seedset 497
attr slotlength 95
attr txPower 10
param **.coreDebug true
param **.debug true
param *.**.nic.mac1609_4.bitrate 6Mbps
param *.**.nic.mac1609_4.cwmax_ "${cwmax=1024, 2048, 4096}"
param *.**.nic.mac1609_4.cwmin_ ${cwmin=512}
param *.**.nic.mac1609_4.slotlength_ "${slotlength=5..100 step 5}ms"
param *.**.nic.mac1609_4.txPower "${txPower=1.26, 2.51, 3.98, 10, 15.85, 25.12, 50.12, 100, 251.19, 501.19, 794.33, 1258.93, 1584.89}mW"
param *.**.nic.mac1609_4.useServiceChannel false
param *.**.nic.phy80211p.analogueModels "xmldoc(\"config.xml\")"
param *.**.nic.phy80211p.decider "xmldoc(\"config.xml\")"
param *.**.nic.phy80211p.sensitivity -89dBm
param *.**.nic.phy80211p.thermalNoise -110dBm
param *.**.nic.phy80211p.usePropagationDelay true
param *.**.nic.phy80211p.useThermalNoise true
param *.annotations.draw false
param *.connectionManager.alpha 2.0
param *.connectionManager.carrierFrequency "5.890e9 Hz"
param *.connectionManager.drawMaxIntfDist false
param *.connectionManager.maxInterfDist 2600m
param *.connectionManager.pMax 20mW
param *.connectionManager.sat -89dBm
param *.connectionManager.sendDirect true
param *.manager.autoShutdown true
param *.manager.host "\"localhost\""
param *.manager.launchConfig "xmldoc(\"osm.launchd.xml\")"
param *.manager.margin 25
param *.manager.moduleDisplayString "\"\""
param *.manager.moduleName "\"node\""
param *.manager.moduleType "\"org.car2x.veins.nodes.Car\""
param *.manager.port 9999
param *.manager.updateInterval 1s
param *.node[*].appl.beaconInterval "0.1 s"
param *.node[*].appl.beaconLengthBits "3960 bit"
param *.node[*].appl.beaconPriority 3
param *.node[*].appl.dataLengthBits "3960 bit"
param *.node[*].appl.dataOnSch false
param *.node[*].appl.dataPriority 2
param *.node[*].appl.debug false
param *.node[*].appl.headerLength "80 bit"
param *.node[*].appl.maxOffset "0.005 s"
param *.node[*].appl.sendBeacons true
param *.node[*].appl.sendData false
param *.node[*].applType "\"TraCIDemo11p\""
param *.node[*].mobilityType "\"TraCIMobility\""
param *.node[*].mobilityType.debug true
param *.node[*].veinsmobility.x 0
param *.node[*].veinsmobility.y 0
param *.node[*].veinsmobility.z 1.895
param *.node[*].veinsmobilityType "\"org.car2x.veins.modules.mobility.traci.TraCIMobility\""
param *.node[*].veinsmobilityType.debug true
param *.obstacles.debug false
param *.playgroundSizeX 2000m
param *.playgroundSizeY 2000m
param *.playgroundSizeZ 50m
param *.world.use2D false
param *.world.useTorus false

scalar . 	cwmax 	2048
scalar . 	cwmin 	512
scalar . 	slotlength 	95
scalar . 	txPower 	10
scalar RSUExampleScenario2.node[5].nic.mac1609_4 	TotalLostPackets 	115
scalar RSUExampleScenario2.node[5].nic.mac1609_4 	delayMedio 	0.008401414987
scalar RSUExampleScenario2.node[5].nic.mac1609_4 	throughputMedioBPS 	487536.92163948
scalar RSUExampleScenario2.node[0].nic.mac1609_4 	TotalLostPackets 	189
scalar RSUExampleScenario2.node[0].nic.mac1609_4 	delayMedio 	0.004575958459
scalar RSUExampleScenario2.node[0].nic.mac1609_4 	throughputMedioBPS 	895113.02097468
scalar RSUExampleScenario2.node[14].nic.mac1609_4 	TotalLostPackets 	92
scalar RSUExampleScenario2.node[14].nic.mac1609_4 	delayMedio 	0.004989452723
scalar RSUExampleScenario2.node[14].nic.mac1609_4 	throughputMedioBPS 	820931.71889845
scalar RSUExampleScenario2.node[7].nic.mac1609_4 	TotalLostPackets 	161
scalar RSUExampleScenario2.node[7].nic.mac1609_4 	delayMedio 	0.009681609327
scalar RSUExampleScenario2.node[7].nic.mac1609_4 	throughputMedioBPS 	423070.15926536
scalar RSUExampleScenario2.node[2].nic.mac1609_4 	TotalLostPackets 	617
scalar RSUExampleScenario2.node[2].nic.mac1609_4 	delayMedio 	0.011355341193
scalar RSUExampleScenario2.node[2].nic.mac1609_4 	throughputMedioBPS 	360711.3102303
scalar RSUExampleScenario2.node[8].nic.mac1609_4 	TotalLostPackets 	373
scalar RSUExampleScenario2.node[8].nic.mac1609_4 	delayMedio 	0.003530837435
scalar RSUExampleScenario2.node[8].nic.mac1609_4 	throughputMedioBPS 	1160064.7367938
scalar RSUExampleScenario2.node[3].nic.mac1609_4 	TotalLostPackets 	871
scalar RSUExampleScenario2.node[3].nic.mac1609_4 	delayMedio 	0.010074790459
scalar RSUExampleScenario2.node[3].nic.mac1609_4 	throughputMedioBPS 	406559.3241358
scalar RSUExampleScenario2.node[11].nic.mac1609_4 	TotalLostPackets 	467
scalar RSUExampleScenario2.node[11].nic.mac1609_4 	delayMedio 	0.009747406257
scalar RSUExampleScenario2.node[11].nic.mac1609_4 	throughputMedioBPS 	420214.35157984
scalar RSUExampleScenario2.node[17].nic.mac1609_4 	TotalLostPackets 	234
scalar RSUExampleScenario2.node[17].nic.mac1609_4 	delayMedio 	0.004644195148
scalar RSUExampleScenario2.node[17].nic.mac1609_4 	throughputMedioBPS 	881961.21603189
scalar RSUExampleScenario2.node[27].nic.mac1609_4 	TotalLostPackets 	142
scalar RSUExampleScenario2.node[27].nic.mac1609_4 	delayMedio 	0.031967350171
scalar RSUExampleScenario2.node[27].nic.mac1609_4 	throughputMedioBPS 	128130.73270458
scalar RSUExampleScenario2.node[12].nic.mac1609_4 	TotalLostPackets 	453
scalar RSUExampleScenario2.node[12].nic.mac1609_4 	delayMedio 	0.009937986851
scalar RSUExampleScenario2.node[12].nic.mac1609_4 	throughputMedioBPS 	412155.90859321
scalar RSUExampleScenario2.node[18].nic.mac1609_4 	TotalLostPackets 	839
scalar RSUExampleScenario2.node[18].nic.mac1609_4 	delayMedio 	0.008191591069
scalar RSUExampleScenario2.node[18].nic.mac1609_4 	throughputMedioBPS 	500024.96042008
scalar RSUExampleScenario2.node[22].nic.mac1609_4 	TotalLostPackets 	650
scalar RSUExampleScenario2.node[22].nic.mac1609_4 	delayMedio 	0.007729504198
scalar RSUExampleScenario2.node[22].nic.mac1609_4 	throughputMedioBPS 	529917.55943346
scalar RSUExampleScenario2.node[28].nic.mac1609_4 	TotalLostPackets 	274
scalar RSUExampleScenario2.node[28].nic.mac1609_4 	delayMedio 	0.012992705352
scalar RSUExampleScenario2.node[28].nic.mac1609_4 	throughputMedioBPS 	315253.82044347
scalar RSUExampleScenario2.node[1].nic.mac1609_4 	TotalLostPackets 	740
scalar RSUExampleScenario2.node[1].nic.mac1609_4 	delayMedio 	0.010508624386
scalar RSUExampleScenario2.node[1].nic.mac1609_4 	throughputMedioBPS 	389775.08850427
scalar RSUExampleScenario2.node[29].nic.mac1609_4 	TotalLostPackets 	0
scalar RSUExampleScenario2.node[29].nic.mac1609_4 	delayMedio 	0.051098795214
scalar RSUExampleScenario2.node[29].nic.mac1609_4 	throughputMedioBPS 	80158.445670363
scalar RSUExampleScenario2.node[34].nic.mac1609_4 	TotalLostPackets 	77
scalar RSUExampleScenario2.node[34].nic.mac1609_4 	delayMedio 	0.000756708364
scalar RSUExampleScenario2.node[34].nic.mac1609_4 	throughputMedioBPS 	5412917.5750684
scalar RSUExampleScenario2.node[9].nic.mac1609_4 	TotalLostPackets 	485
scalar RSUExampleScenario2.node[9].nic.mac1609_4 	delayMedio 	0.009009496736
scalar RSUExampleScenario2.node[9].nic.mac1609_4 	throughputMedioBPS 	454631.38732293
scalar RSUExampleScenario2.node[15].nic.mac1609_4 	TotalLostPackets 	330
scalar RSUExampleScenario2.node[15].nic.mac1609_4 	delayMedio 	0.007598730688
scalar RSUExampleScenario2.node[15].nic.mac1609_4 	throughputMedioBPS 	539037.39561349
scalar RSUExampleScenario2.node[20].nic.mac1609_4 	TotalLostPackets 	0
scalar RSUExampleScenario2.node[20].nic.mac1609_4 	delayMedio 	0.004842488472
scalar RSUExampleScenario2.node[20].nic.mac1609_4 	throughputMedioBPS 	845846.10234818
scalar RSUExampleScenario2.node[23].nic.mac1609_4 	TotalLostPackets 	465
scalar RSUExampleScenario2.node[23].nic.mac1609_4 	delayMedio 	0.007674469917
scalar RSUExampleScenario2.node[23].nic.mac1609_4 	throughputMedioBPS 	533717.64357216
scalar RSUExampleScenario2.node[25].nic.mac1609_4 	TotalLostPackets 	80
scalar RSUExampleScenario2.node[25].nic.mac1609_4 	delayMedio 	0.010534741692
scalar RSUExampleScenario2.node[25].nic.mac1609_4 	throughputMedioBPS 	388808.7738574
scalar RSUExampleScenario2.node[4].nic.mac1609_4 	TotalLostPackets 	907
scalar RSUExampleScenario2.node[4].nic.mac1609_4 	delayMedio 	0.009843428379
scalar RSUExampleScenario2.node[4].nic.mac1609_4 	throughputMedioBPS 	416115.18287302
scalar RSUExampleScenario2.node[19].nic.mac1609_4 	TotalLostPackets 	368
scalar RSUExampleScenario2.node[19].nic.mac1609_4 	delayMedio 	0.007838450487
scalar RSUExampleScenario2.node[19].nic.mac1609_4 	throughputMedioBPS 	522552.2578428
scalar RSUExampleScenario2.node[21].nic.mac1609_4 	TotalLostPackets 	607
scalar RSUExampleScenario2.node[21].nic.mac1609_4 	delayMedio 	0.009772327331
scalar RSUExampleScenario2.node[21].nic.mac1609_4 	throughputMedioBPS 	419142.73452679
scalar RSUExampleScenario2.node[24].nic.mac1609_4 	TotalLostPackets 	0
scalar RSUExampleScenario2.node[24].nic.mac1609_4 	delayMedio 	0.005318133422
scalar RSUExampleScenario2.node[24].nic.mac1609_4 	throughputMedioBPS 	770195.04299689
scalar RSUExampleScenario2.node[26].nic.mac1609_4 	TotalLostPackets 	395
scalar RSUExampleScenario2.node[26].nic.mac1609_4 	delayMedio 	0.008033425338
scalar RSUExampleScenario2.node[26].nic.mac1609_4 	throughputMedioBPS 	509869.67919036
scalar RSUExampleScenario2.node[30].nic.mac1609_4 	TotalLostPackets 	28
scalar RSUExampleScenario2.node[30].nic.mac1609_4 	delayMedio 	0.010265647753
scalar RSUExampleScenario2.node[30].nic.mac1609_4 	throughputMedioBPS 	399000.63769943
scalar RSUExampleScenario2.node[31].nic.mac1609_4 	TotalLostPackets 	0
scalar RSUExampleScenario2.node[31].nic.mac1609_4 	delayMedio 	0.058485042979
scalar RSUExampleScenario2.node[31].nic.mac1609_4 	throughputMedioBPS 	70035.000255728
scalar RSUExampleScenario2.node[32].nic.mac1609_4 	TotalLostPackets 	1
scalar RSUExampleScenario2.node[32].nic.mac1609_4 	delayMedio 	0.020695897355
scalar RSUExampleScenario2.node[32].nic.mac1609_4 	throughputMedioBPS 	197913.62171108
scalar RSUExampleScenario2.node[35].nic.mac1609_4 	TotalLostPackets 	30
scalar RSUExampleScenario2.node[35].nic.mac1609_4 	delayMedio 	0.00072167543
scalar RSUExampleScenario2.node[35].nic.mac1609_4 	throughputMedioBPS 	5675681.659649
scalar RSUExampleScenario2.node[10].nic.mac1609_4 	TotalLostPackets 	348
scalar RSUExampleScenario2.node[10].nic.mac1609_4 	delayMedio 	0.005816194876
scalar RSUExampleScenario2.node[10].nic.mac1609_4 	throughputMedioBPS 	704240.50209795
scalar RSUExampleScenario2.node[13].nic.mac1609_4 	TotalLostPackets 	447
scalar RSUExampleScenario2.node[13].nic.mac1609_4 	delayMedio 	0.012085934713
scalar RSUExampleScenario2.node[13].nic.mac1609_4 	throughputMedioBPS 	338906.34833925
scalar RSUExampleScenario2.node[16].nic.mac1609_4 	TotalLostPackets 	370
scalar RSUExampleScenario2.node[16].nic.mac1609_4 	delayMedio 	0.009458127946
scalar RSUExampleScenario2.node[16].nic.mac1609_4 	throughputMedioBPS 	433066.67274237
