version 2
run v1-463-20171205-18:00:11-5821
attr configname v1
attr cwmax 2048
attr cwmin 256
attr datetime 20171205-18:00:11
attr experiment v1
attr inifile omnetpp.ini
attr iterationvars "$cwmin=256, $cwmax=2048, $slotlength=80, $txPower=251.19"
attr iterationvars2 "$cwmin=256, $cwmax=2048, $slotlength=80, $txPower=251.19, $repetition=0"
attr measurement "$cwmin=256, $cwmax=2048, $slotlength=80, $txPower=251.19"
attr network RSUExampleScenario2
attr processid 5821
attr repetition 0
attr replication #0
attr resultdir results
attr runnumber 463
attr seedset 463
attr slotlength 80
attr txPower 251.19
param **.coreDebug true
param **.debug true
param *.**.nic.mac1609_4.bitrate 6Mbps
param *.**.nic.mac1609_4.cwmax_ "${cwmax=1024, 2048, 4096}"
param *.**.nic.mac1609_4.cwmin_ "${cwmin=256, 512}"
param *.**.nic.mac1609_4.slotlength_ "${slotlength=5..100 step 5}ms"
param *.**.nic.mac1609_4.txPower "${txPower=1.26, 2.51, 3.98, 10, 15.85, 25.12, 50.12, 100, 251.19, 501.19, 794.33, 1258.93, 1584.89}mW"
param *.**.nic.mac1609_4.useServiceChannel false
param *.**.nic.phy80211p.analogueModels "xmldoc(\"config.xml\")"
param *.**.nic.phy80211p.decider "xmldoc(\"config.xml\")"
param *.**.nic.phy80211p.sensitivity -89dBm
param *.**.nic.phy80211p.thermalNoise -110dBm
param *.**.nic.phy80211p.usePropagationDelay true
param *.**.nic.phy80211p.useThermalNoise true
param *.annotations.draw false
param *.connectionManager.alpha 2.0
param *.connectionManager.carrierFrequency "5.890e9 Hz"
param *.connectionManager.drawMaxIntfDist false
param *.connectionManager.maxInterfDist 2600m
param *.connectionManager.pMax 20mW
param *.connectionManager.sat -89dBm
param *.connectionManager.sendDirect true
param *.manager.autoShutdown true
param *.manager.host "\"localhost\""
param *.manager.launchConfig "xmldoc(\"osm.launchd.xml\")"
param *.manager.margin 25
param *.manager.moduleDisplayString "\"\""
param *.manager.moduleName "\"node\""
param *.manager.moduleType "\"org.car2x.veins.nodes.Car\""
param *.manager.port 9999
param *.manager.updateInterval 1s
param *.node[*].appl.beaconInterval "0.1 s"
param *.node[*].appl.beaconLengthBits "3960 bit"
param *.node[*].appl.beaconPriority 3
param *.node[*].appl.dataLengthBits "3960 bit"
param *.node[*].appl.dataOnSch false
param *.node[*].appl.dataPriority 2
param *.node[*].appl.debug false
param *.node[*].appl.headerLength "80 bit"
param *.node[*].appl.maxOffset "0.005 s"
param *.node[*].appl.sendBeacons true
param *.node[*].appl.sendData false
param *.node[*].applType "\"TraCIDemo11p\""
param *.node[*].mobilityType "\"TraCIMobility\""
param *.node[*].mobilityType.debug true
param *.node[*].veinsmobility.x 0
param *.node[*].veinsmobility.y 0
param *.node[*].veinsmobility.z 1.895
param *.node[*].veinsmobilityType "\"org.car2x.veins.modules.mobility.traci.TraCIMobility\""
param *.node[*].veinsmobilityType.debug true
param *.obstacles.debug false
param *.playgroundSizeX 2000m
param *.playgroundSizeY 2000m
param *.playgroundSizeZ 50m
param *.world.use2D false
param *.world.useTorus false

scalar . 	cwmax 	2048
scalar . 	cwmin 	256
scalar . 	slotlength 	80
scalar . 	txPower 	251.19
scalar RSUExampleScenario2.node[6].nic.mac1609_4 	TotalLostPackets 	0
scalar RSUExampleScenario2.node[6].nic.mac1609_4 	delayMedio 	0.000723260824
scalar RSUExampleScenario2.node[6].nic.mac1609_4 	throughputMedioBPS 	5663240.5132192
scalar RSUExampleScenario2.node[5].nic.mac1609_4 	TotalLostPackets 	4
scalar RSUExampleScenario2.node[5].nic.mac1609_4 	delayMedio 	0.005654840359
scalar RSUExampleScenario2.node[5].nic.mac1609_4 	throughputMedioBPS 	724335.21369935
scalar RSUExampleScenario2.node[0].nic.mac1609_4 	TotalLostPackets 	4
scalar RSUExampleScenario2.node[0].nic.mac1609_4 	delayMedio 	0.005492414843
scalar RSUExampleScenario2.node[0].nic.mac1609_4 	throughputMedioBPS 	745755.7589689
scalar RSUExampleScenario2.node[14].nic.mac1609_4 	TotalLostPackets 	6
scalar RSUExampleScenario2.node[14].nic.mac1609_4 	delayMedio 	0.006316088741
scalar RSUExampleScenario2.node[14].nic.mac1609_4 	throughputMedioBPS 	648502.60473745
scalar RSUExampleScenario2.node[7].nic.mac1609_4 	TotalLostPackets 	6
scalar RSUExampleScenario2.node[7].nic.mac1609_4 	delayMedio 	0.005339033421
scalar RSUExampleScenario2.node[7].nic.mac1609_4 	throughputMedioBPS 	767180.06371534
scalar RSUExampleScenario2.node[2].nic.mac1609_4 	TotalLostPackets 	6
scalar RSUExampleScenario2.node[2].nic.mac1609_4 	delayMedio 	0.005099075889
scalar RSUExampleScenario2.node[2].nic.mac1609_4 	throughputMedioBPS 	803282.80838841
scalar RSUExampleScenario2.node[8].nic.mac1609_4 	TotalLostPackets 	4
scalar RSUExampleScenario2.node[8].nic.mac1609_4 	delayMedio 	0.005259821016
scalar RSUExampleScenario2.node[8].nic.mac1609_4 	throughputMedioBPS 	778733.72252868
scalar RSUExampleScenario2.node[3].nic.mac1609_4 	TotalLostPackets 	6
scalar RSUExampleScenario2.node[3].nic.mac1609_4 	delayMedio 	0.004554926848
scalar RSUExampleScenario2.node[3].nic.mac1609_4 	throughputMedioBPS 	899246.05517431
scalar RSUExampleScenario2.node[11].nic.mac1609_4 	TotalLostPackets 	5
scalar RSUExampleScenario2.node[11].nic.mac1609_4 	delayMedio 	0.005113182093
scalar RSUExampleScenario2.node[11].nic.mac1609_4 	throughputMedioBPS 	801066.71845761
scalar RSUExampleScenario2.node[17].nic.mac1609_4 	TotalLostPackets 	1
scalar RSUExampleScenario2.node[17].nic.mac1609_4 	delayMedio 	0.002820402411
scalar RSUExampleScenario2.node[17].nic.mac1609_4 	throughputMedioBPS 	1452275.0315806
scalar RSUExampleScenario2.node[27].nic.mac1609_4 	TotalLostPackets 	2
scalar RSUExampleScenario2.node[27].nic.mac1609_4 	delayMedio 	0.004487584084
scalar RSUExampleScenario2.node[27].nic.mac1609_4 	throughputMedioBPS 	912740.55781593
scalar RSUExampleScenario2.node[12].nic.mac1609_4 	TotalLostPackets 	5
scalar RSUExampleScenario2.node[12].nic.mac1609_4 	delayMedio 	0.005114763873
scalar RSUExampleScenario2.node[12].nic.mac1609_4 	throughputMedioBPS 	800818.9823411
scalar RSUExampleScenario2.node[18].nic.mac1609_4 	TotalLostPackets 	1
scalar RSUExampleScenario2.node[18].nic.mac1609_4 	delayMedio 	0.002820295098
scalar RSUExampleScenario2.node[18].nic.mac1609_4 	throughputMedioBPS 	1452330.2910614
scalar RSUExampleScenario2.node[22].nic.mac1609_4 	TotalLostPackets 	1
scalar RSUExampleScenario2.node[22].nic.mac1609_4 	delayMedio 	0.003428323833
scalar RSUExampleScenario2.node[22].nic.mac1609_4 	throughputMedioBPS 	1194752.9463414
scalar RSUExampleScenario2.node[28].nic.mac1609_4 	TotalLostPackets 	2
scalar RSUExampleScenario2.node[28].nic.mac1609_4 	delayMedio 	0.004480483652
scalar RSUExampleScenario2.node[28].nic.mac1609_4 	throughputMedioBPS 	914187.02052156
scalar RSUExampleScenario2.node[33].nic.mac1609_4 	TotalLostPackets 	0
scalar RSUExampleScenario2.node[33].nic.mac1609_4 	delayMedio 	0.000841065962
scalar RSUExampleScenario2.node[33].nic.mac1609_4 	throughputMedioBPS 	4870010.4232345
scalar RSUExampleScenario2.node[1].nic.mac1609_4 	TotalLostPackets 	6
scalar RSUExampleScenario2.node[1].nic.mac1609_4 	delayMedio 	0.00452309425
scalar RSUExampleScenario2.node[1].nic.mac1609_4 	throughputMedioBPS 	905574.76225185
scalar RSUExampleScenario2.node[29].nic.mac1609_4 	TotalLostPackets 	2
scalar RSUExampleScenario2.node[29].nic.mac1609_4 	delayMedio 	0.004494285898
scalar RSUExampleScenario2.node[29].nic.mac1609_4 	throughputMedioBPS 	911379.49240208
scalar RSUExampleScenario2.node[34].nic.mac1609_4 	TotalLostPackets 	0
scalar RSUExampleScenario2.node[34].nic.mac1609_4 	delayMedio 	0.000840198236
scalar RSUExampleScenario2.node[34].nic.mac1609_4 	throughputMedioBPS 	4875039.9890533
scalar RSUExampleScenario2.node[9].nic.mac1609_4 	TotalLostPackets 	4
scalar RSUExampleScenario2.node[9].nic.mac1609_4 	delayMedio 	0.004787471724
scalar RSUExampleScenario2.node[9].nic.mac1609_4 	throughputMedioBPS 	855566.4107781
scalar RSUExampleScenario2.node[15].nic.mac1609_4 	TotalLostPackets 	3
scalar RSUExampleScenario2.node[15].nic.mac1609_4 	delayMedio 	0.005277615327
scalar RSUExampleScenario2.node[15].nic.mac1609_4 	throughputMedioBPS 	776108.09931968
scalar RSUExampleScenario2.node[20].nic.mac1609_4 	TotalLostPackets 	1
scalar RSUExampleScenario2.node[20].nic.mac1609_4 	delayMedio 	0.003252983967
scalar RSUExampleScenario2.node[20].nic.mac1609_4 	throughputMedioBPS 	1259151.610207
scalar RSUExampleScenario2.node[23].nic.mac1609_4 	TotalLostPackets 	2
scalar RSUExampleScenario2.node[23].nic.mac1609_4 	delayMedio 	0.003223211542
scalar RSUExampleScenario2.node[23].nic.mac1609_4 	throughputMedioBPS 	1270782.2451213
scalar RSUExampleScenario2.node[25].nic.mac1609_4 	TotalLostPackets 	2
scalar RSUExampleScenario2.node[25].nic.mac1609_4 	delayMedio 	0.003660253696
scalar RSUExampleScenario2.node[25].nic.mac1609_4 	throughputMedioBPS 	1119048.1152923
scalar RSUExampleScenario2.node[4].nic.mac1609_4 	TotalLostPackets 	6
scalar RSUExampleScenario2.node[4].nic.mac1609_4 	delayMedio 	0.004583166638
scalar RSUExampleScenario2.node[4].nic.mac1609_4 	throughputMedioBPS 	893705.23128941
scalar RSUExampleScenario2.node[19].nic.mac1609_4 	TotalLostPackets 	1
scalar RSUExampleScenario2.node[19].nic.mac1609_4 	delayMedio 	0.002993461013
scalar RSUExampleScenario2.node[19].nic.mac1609_4 	throughputMedioBPS 	1368315.7996339
scalar RSUExampleScenario2.node[21].nic.mac1609_4 	TotalLostPackets 	2
scalar RSUExampleScenario2.node[21].nic.mac1609_4 	delayMedio 	0.002965134229
scalar RSUExampleScenario2.node[21].nic.mac1609_4 	throughputMedioBPS 	1381387.7159771
scalar RSUExampleScenario2.node[24].nic.mac1609_4 	TotalLostPackets 	1
scalar RSUExampleScenario2.node[24].nic.mac1609_4 	delayMedio 	0.003760961659
scalar RSUExampleScenario2.node[24].nic.mac1609_4 	throughputMedioBPS 	1089083.1578398
scalar RSUExampleScenario2.node[26].nic.mac1609_4 	TotalLostPackets 	2
scalar RSUExampleScenario2.node[26].nic.mac1609_4 	delayMedio 	0.00392338364
scalar RSUExampleScenario2.node[26].nic.mac1609_4 	throughputMedioBPS 	1043996.8088555
scalar RSUExampleScenario2.node[30].nic.mac1609_4 	TotalLostPackets 	2
scalar RSUExampleScenario2.node[30].nic.mac1609_4 	delayMedio 	0.004469192182
scalar RSUExampleScenario2.node[30].nic.mac1609_4 	throughputMedioBPS 	916496.72535794
scalar RSUExampleScenario2.node[31].nic.mac1609_4 	TotalLostPackets 	2
scalar RSUExampleScenario2.node[31].nic.mac1609_4 	delayMedio 	0.005492397087
scalar RSUExampleScenario2.node[31].nic.mac1609_4 	throughputMedioBPS 	745758.16992004
scalar RSUExampleScenario2.node[32].nic.mac1609_4 	TotalLostPackets 	0
scalar RSUExampleScenario2.node[32].nic.mac1609_4 	delayMedio 	0.000839483574
scalar RSUExampleScenario2.node[32].nic.mac1609_4 	throughputMedioBPS 	4879190.1681725
scalar RSUExampleScenario2.node[35].nic.mac1609_4 	TotalLostPackets 	0
scalar RSUExampleScenario2.node[35].nic.mac1609_4 	delayMedio 	0.000837772495
scalar RSUExampleScenario2.node[35].nic.mac1609_4 	throughputMedioBPS 	4889155.4974413
scalar RSUExampleScenario2.node[10].nic.mac1609_4 	TotalLostPackets 	4
scalar RSUExampleScenario2.node[10].nic.mac1609_4 	delayMedio 	0.004839866032
scalar RSUExampleScenario2.node[10].nic.mac1609_4 	throughputMedioBPS 	846304.41695803
scalar RSUExampleScenario2.node[13].nic.mac1609_4 	TotalLostPackets 	5
scalar RSUExampleScenario2.node[13].nic.mac1609_4 	delayMedio 	0.005246377438
scalar RSUExampleScenario2.node[13].nic.mac1609_4 	throughputMedioBPS 	780729.18860593
scalar RSUExampleScenario2.node[16].nic.mac1609_4 	TotalLostPackets 	1
scalar RSUExampleScenario2.node[16].nic.mac1609_4 	delayMedio 	0.003161284045
scalar RSUExampleScenario2.node[16].nic.mac1609_4 	throughputMedioBPS 	1295676.0421589
