version 2
run v1-289-20171205-05:16:39-5821
attr configname v1
attr cwmax 2048
attr cwmin 256
attr datetime 20171205-05:16:39
attr experiment v1
attr inifile omnetpp.ini
attr iterationvars "$cwmin=256, $cwmax=2048, $slotlength=15, $txPower=10"
attr iterationvars2 "$cwmin=256, $cwmax=2048, $slotlength=15, $txPower=10, $repetition=0"
attr measurement "$cwmin=256, $cwmax=2048, $slotlength=15, $txPower=10"
attr network RSUExampleScenario2
attr processid 5821
attr repetition 0
attr replication #0
attr resultdir results
attr runnumber 289
attr seedset 289
attr slotlength 15
attr txPower 10
param **.coreDebug true
param **.debug true
param *.**.nic.mac1609_4.bitrate 6Mbps
param *.**.nic.mac1609_4.cwmax_ "${cwmax=1024, 2048, 4096}"
param *.**.nic.mac1609_4.cwmin_ "${cwmin=256, 512}"
param *.**.nic.mac1609_4.slotlength_ "${slotlength=5..100 step 5}ms"
param *.**.nic.mac1609_4.txPower "${txPower=1.26, 2.51, 3.98, 10, 15.85, 25.12, 50.12, 100, 251.19, 501.19, 794.33, 1258.93, 1584.89}mW"
param *.**.nic.mac1609_4.useServiceChannel false
param *.**.nic.phy80211p.analogueModels "xmldoc(\"config.xml\")"
param *.**.nic.phy80211p.decider "xmldoc(\"config.xml\")"
param *.**.nic.phy80211p.sensitivity -89dBm
param *.**.nic.phy80211p.thermalNoise -110dBm
param *.**.nic.phy80211p.usePropagationDelay true
param *.**.nic.phy80211p.useThermalNoise true
param *.annotations.draw false
param *.connectionManager.alpha 2.0
param *.connectionManager.carrierFrequency "5.890e9 Hz"
param *.connectionManager.drawMaxIntfDist false
param *.connectionManager.maxInterfDist 2600m
param *.connectionManager.pMax 20mW
param *.connectionManager.sat -89dBm
param *.connectionManager.sendDirect true
param *.manager.autoShutdown true
param *.manager.host "\"localhost\""
param *.manager.launchConfig "xmldoc(\"osm.launchd.xml\")"
param *.manager.margin 25
param *.manager.moduleDisplayString "\"\""
param *.manager.moduleName "\"node\""
param *.manager.moduleType "\"org.car2x.veins.nodes.Car\""
param *.manager.port 9999
param *.manager.updateInterval 1s
param *.node[*].appl.beaconInterval "0.1 s"
param *.node[*].appl.beaconLengthBits "3960 bit"
param *.node[*].appl.beaconPriority 3
param *.node[*].appl.dataLengthBits "3960 bit"
param *.node[*].appl.dataOnSch false
param *.node[*].appl.dataPriority 2
param *.node[*].appl.debug false
param *.node[*].appl.headerLength "80 bit"
param *.node[*].appl.maxOffset "0.005 s"
param *.node[*].appl.sendBeacons true
param *.node[*].appl.sendData false
param *.node[*].applType "\"TraCIDemo11p\""
param *.node[*].mobilityType "\"TraCIMobility\""
param *.node[*].mobilityType.debug true
param *.node[*].veinsmobility.x 0
param *.node[*].veinsmobility.y 0
param *.node[*].veinsmobility.z 1.895
param *.node[*].veinsmobilityType "\"org.car2x.veins.modules.mobility.traci.TraCIMobility\""
param *.node[*].veinsmobilityType.debug true
param *.obstacles.debug false
param *.playgroundSizeX 2000m
param *.playgroundSizeY 2000m
param *.playgroundSizeZ 50m
param *.world.use2D false
param *.world.useTorus false

scalar . 	cwmax 	2048
scalar . 	cwmin 	256
scalar . 	slotlength 	15
scalar . 	txPower 	10
scalar RSUExampleScenario2.node[5].nic.mac1609_4 	TotalLostPackets 	36
scalar RSUExampleScenario2.node[5].nic.mac1609_4 	delayMedio 	0.007247304266
scalar RSUExampleScenario2.node[5].nic.mac1609_4 	throughputMedioBPS 	565175.66390986
scalar RSUExampleScenario2.node[0].nic.mac1609_4 	TotalLostPackets 	342
scalar RSUExampleScenario2.node[0].nic.mac1609_4 	delayMedio 	0.003758676278
scalar RSUExampleScenario2.node[0].nic.mac1609_4 	throughputMedioBPS 	1089745.3510491
scalar RSUExampleScenario2.node[14].nic.mac1609_4 	TotalLostPackets 	673
scalar RSUExampleScenario2.node[14].nic.mac1609_4 	delayMedio 	0.004199729388
scalar RSUExampleScenario2.node[14].nic.mac1609_4 	throughputMedioBPS 	975300.93519672
scalar RSUExampleScenario2.node[7].nic.mac1609_4 	TotalLostPackets 	146
scalar RSUExampleScenario2.node[7].nic.mac1609_4 	delayMedio 	0.00686019311
scalar RSUExampleScenario2.node[7].nic.mac1609_4 	throughputMedioBPS 	597067.74058818
scalar RSUExampleScenario2.node[2].nic.mac1609_4 	TotalLostPackets 	210
scalar RSUExampleScenario2.node[2].nic.mac1609_4 	delayMedio 	0.010835327779
scalar RSUExampleScenario2.node[2].nic.mac1609_4 	throughputMedioBPS 	378022.71271512
scalar RSUExampleScenario2.node[8].nic.mac1609_4 	TotalLostPackets 	312
scalar RSUExampleScenario2.node[8].nic.mac1609_4 	delayMedio 	0.003394571217
scalar RSUExampleScenario2.node[8].nic.mac1609_4 	throughputMedioBPS 	1206632.5134741
scalar RSUExampleScenario2.node[3].nic.mac1609_4 	TotalLostPackets 	228
scalar RSUExampleScenario2.node[3].nic.mac1609_4 	delayMedio 	0.008567949003
scalar RSUExampleScenario2.node[3].nic.mac1609_4 	throughputMedioBPS 	478060.73523697
scalar RSUExampleScenario2.node[11].nic.mac1609_4 	TotalLostPackets 	107
scalar RSUExampleScenario2.node[11].nic.mac1609_4 	delayMedio 	0.012170425776
scalar RSUExampleScenario2.node[11].nic.mac1609_4 	throughputMedioBPS 	336553.55001597
scalar RSUExampleScenario2.node[17].nic.mac1609_4 	TotalLostPackets 	659
scalar RSUExampleScenario2.node[17].nic.mac1609_4 	delayMedio 	0.00514189766
scalar RSUExampleScenario2.node[17].nic.mac1609_4 	throughputMedioBPS 	796593.06168334
scalar RSUExampleScenario2.node[27].nic.mac1609_4 	TotalLostPackets 	141
scalar RSUExampleScenario2.node[27].nic.mac1609_4 	delayMedio 	0.000728793305
scalar RSUExampleScenario2.node[27].nic.mac1609_4 	throughputMedioBPS 	5620249.216928
scalar RSUExampleScenario2.node[12].nic.mac1609_4 	TotalLostPackets 	83
scalar RSUExampleScenario2.node[12].nic.mac1609_4 	delayMedio 	0.01277585132
scalar RSUExampleScenario2.node[12].nic.mac1609_4 	throughputMedioBPS 	320604.85813122
scalar RSUExampleScenario2.node[18].nic.mac1609_4 	TotalLostPackets 	169
scalar RSUExampleScenario2.node[18].nic.mac1609_4 	delayMedio 	0.011795920594
scalar RSUExampleScenario2.node[18].nic.mac1609_4 	throughputMedioBPS 	347238.68877556
scalar RSUExampleScenario2.node[22].nic.mac1609_4 	TotalLostPackets 	177
scalar RSUExampleScenario2.node[22].nic.mac1609_4 	delayMedio 	0.01070364801
scalar RSUExampleScenario2.node[22].nic.mac1609_4 	throughputMedioBPS 	382673.27139467
scalar RSUExampleScenario2.node[28].nic.mac1609_4 	TotalLostPackets 	34
scalar RSUExampleScenario2.node[28].nic.mac1609_4 	delayMedio 	0.016637680193
scalar RSUExampleScenario2.node[28].nic.mac1609_4 	throughputMedioBPS 	246188.16760608
scalar RSUExampleScenario2.node[1].nic.mac1609_4 	TotalLostPackets 	250
scalar RSUExampleScenario2.node[1].nic.mac1609_4 	delayMedio 	0.00908932027
scalar RSUExampleScenario2.node[1].nic.mac1609_4 	throughputMedioBPS 	450638.7582576
scalar RSUExampleScenario2.node[29].nic.mac1609_4 	TotalLostPackets 	0
scalar RSUExampleScenario2.node[29].nic.mac1609_4 	delayMedio 	0.000721479285
scalar RSUExampleScenario2.node[29].nic.mac1609_4 	throughputMedioBPS 	5677224.6759481
scalar RSUExampleScenario2.node[34].nic.mac1609_4 	TotalLostPackets 	160
scalar RSUExampleScenario2.node[34].nic.mac1609_4 	delayMedio 	0.000842521137
scalar RSUExampleScenario2.node[34].nic.mac1609_4 	throughputMedioBPS 	4861599.101107
scalar RSUExampleScenario2.node[9].nic.mac1609_4 	TotalLostPackets 	510
scalar RSUExampleScenario2.node[9].nic.mac1609_4 	delayMedio 	0.008540778762
scalar RSUExampleScenario2.node[9].nic.mac1609_4 	throughputMedioBPS 	479581.55975401
scalar RSUExampleScenario2.node[15].nic.mac1609_4 	TotalLostPackets 	101
scalar RSUExampleScenario2.node[15].nic.mac1609_4 	delayMedio 	0.011176837024
scalar RSUExampleScenario2.node[15].nic.mac1609_4 	throughputMedioBPS 	366472.1952471
scalar RSUExampleScenario2.node[20].nic.mac1609_4 	TotalLostPackets 	7
scalar RSUExampleScenario2.node[20].nic.mac1609_4 	delayMedio 	0.004841983166
scalar RSUExampleScenario2.node[20].nic.mac1609_4 	throughputMedioBPS 	845934.37438089
scalar RSUExampleScenario2.node[23].nic.mac1609_4 	TotalLostPackets 	187
scalar RSUExampleScenario2.node[23].nic.mac1609_4 	delayMedio 	0.008107264549
scalar RSUExampleScenario2.node[23].nic.mac1609_4 	throughputMedioBPS 	505225.8964798
scalar RSUExampleScenario2.node[25].nic.mac1609_4 	TotalLostPackets 	188
scalar RSUExampleScenario2.node[25].nic.mac1609_4 	delayMedio 	0.008632324858
scalar RSUExampleScenario2.node[25].nic.mac1609_4 	throughputMedioBPS 	474495.58115078
scalar RSUExampleScenario2.node[4].nic.mac1609_4 	TotalLostPackets 	229
scalar RSUExampleScenario2.node[4].nic.mac1609_4 	delayMedio 	0.008593897607
scalar RSUExampleScenario2.node[4].nic.mac1609_4 	throughputMedioBPS 	476617.26811391
scalar RSUExampleScenario2.node[19].nic.mac1609_4 	TotalLostPackets 	113
scalar RSUExampleScenario2.node[19].nic.mac1609_4 	delayMedio 	0.011419245565
scalar RSUExampleScenario2.node[19].nic.mac1609_4 	throughputMedioBPS 	358692.69792279
scalar RSUExampleScenario2.node[21].nic.mac1609_4 	TotalLostPackets 	485
scalar RSUExampleScenario2.node[21].nic.mac1609_4 	delayMedio 	0.009460746684
scalar RSUExampleScenario2.node[21].nic.mac1609_4 	throughputMedioBPS 	432946.79974496
scalar RSUExampleScenario2.node[24].nic.mac1609_4 	TotalLostPackets 	2
scalar RSUExampleScenario2.node[24].nic.mac1609_4 	delayMedio 	0.005332558177
scalar RSUExampleScenario2.node[24].nic.mac1609_4 	throughputMedioBPS 	768111.63871985
scalar RSUExampleScenario2.node[26].nic.mac1609_4 	TotalLostPackets 	67
scalar RSUExampleScenario2.node[26].nic.mac1609_4 	delayMedio 	0.009495849578
scalar RSUExampleScenario2.node[26].nic.mac1609_4 	throughputMedioBPS 	431346.34414611
scalar RSUExampleScenario2.node[30].nic.mac1609_4 	TotalLostPackets 	114
scalar RSUExampleScenario2.node[30].nic.mac1609_4 	delayMedio 	0.007637746571
scalar RSUExampleScenario2.node[30].nic.mac1609_4 	throughputMedioBPS 	536283.83210989
scalar RSUExampleScenario2.node[31].nic.mac1609_4 	TotalLostPackets 	0
scalar RSUExampleScenario2.node[31].nic.mac1609_4 	delayMedio 	0.000721440807
scalar RSUExampleScenario2.node[31].nic.mac1609_4 	throughputMedioBPS 	5677527.4714555
scalar RSUExampleScenario2.node[32].nic.mac1609_4 	TotalLostPackets 	0
scalar RSUExampleScenario2.node[32].nic.mac1609_4 	delayMedio 	0.027433548481
scalar RSUExampleScenario2.node[32].nic.mac1609_4 	throughputMedioBPS 	149306.2409645
scalar RSUExampleScenario2.node[35].nic.mac1609_4 	TotalLostPackets 	0
scalar RSUExampleScenario2.node[35].nic.mac1609_4 	delayMedio 	0.00078081911
scalar RSUExampleScenario2.node[35].nic.mac1609_4 	throughputMedioBPS 	5245773.2508411
scalar RSUExampleScenario2.node[10].nic.mac1609_4 	TotalLostPackets 	807
scalar RSUExampleScenario2.node[10].nic.mac1609_4 	delayMedio 	0.00722342271
scalar RSUExampleScenario2.node[10].nic.mac1609_4 	throughputMedioBPS 	567044.2066738
scalar RSUExampleScenario2.node[13].nic.mac1609_4 	TotalLostPackets 	94
scalar RSUExampleScenario2.node[13].nic.mac1609_4 	delayMedio 	0.012998400664
scalar RSUExampleScenario2.node[13].nic.mac1609_4 	throughputMedioBPS 	315115.69045635
scalar RSUExampleScenario2.node[16].nic.mac1609_4 	TotalLostPackets 	688
scalar RSUExampleScenario2.node[16].nic.mac1609_4 	delayMedio 	0.007974139868
scalar RSUExampleScenario2.node[16].nic.mac1609_4 	throughputMedioBPS 	513660.41577989
