version 2
run v1-239-20171208-08:42:43-19400
attr configname v1
attr cwmax 4096
attr cwmin 256
attr datetime 20171208-08:42:43
attr experiment v1
attr inifile omnetpp.ini
attr iterationvars "$cwmin=256, $cwmax=4096, $slotlength=95, $txPower=25.12"
attr iterationvars2 "$cwmin=256, $cwmax=4096, $slotlength=95, $txPower=25.12, $repetition=0"
attr measurement "$cwmin=256, $cwmax=4096, $slotlength=95, $txPower=25.12"
attr network RSUExampleScenario2
attr processid 19400
attr repetition 0
attr replication #0
attr resultdir results
attr runnumber 239
attr seedset 239
attr slotlength 95
attr txPower 25.12
param **.coreDebug true
param **.debug true
param *.**.nic.mac1609_4.bitrate 6Mbps
param *.**.nic.mac1609_4.cwmax_ ${cwmax=4096}
param *.**.nic.mac1609_4.cwmin_ ${cwmin=256}
param *.**.nic.mac1609_4.slotlength_ "${slotlength=5..100 step 5}ms"
param *.**.nic.mac1609_4.txPower "${txPower=1.26, 2.51, 3.98, 10, 15.85, 25.12, 50.12, 100, 251.19, 501.19, 794.33, 1258.93, 1584.89}mW"
param *.**.nic.mac1609_4.useServiceChannel false
param *.**.nic.phy80211p.analogueModels "xmldoc(\"config.xml\")"
param *.**.nic.phy80211p.decider "xmldoc(\"config.xml\")"
param *.**.nic.phy80211p.sensitivity -89dBm
param *.**.nic.phy80211p.thermalNoise -110dBm
param *.**.nic.phy80211p.usePropagationDelay true
param *.**.nic.phy80211p.useThermalNoise true
param *.annotations.draw false
param *.connectionManager.alpha 2.0
param *.connectionManager.carrierFrequency "5.890e9 Hz"
param *.connectionManager.drawMaxIntfDist false
param *.connectionManager.maxInterfDist 2600m
param *.connectionManager.pMax 20mW
param *.connectionManager.sat -89dBm
param *.connectionManager.sendDirect true
param *.manager.autoShutdown true
param *.manager.host "\"localhost\""
param *.manager.launchConfig "xmldoc(\"osm.launchd.xml\")"
param *.manager.margin 25
param *.manager.moduleDisplayString "\"\""
param *.manager.moduleName "\"node\""
param *.manager.moduleType "\"org.car2x.veins.nodes.Car\""
param *.manager.port 9999
param *.manager.updateInterval 1s
param *.node[*].appl.beaconInterval "0.1 s"
param *.node[*].appl.beaconLengthBits "3960 bit"
param *.node[*].appl.beaconPriority 3
param *.node[*].appl.dataLengthBits "3960 bit"
param *.node[*].appl.dataOnSch false
param *.node[*].appl.dataPriority 2
param *.node[*].appl.debug false
param *.node[*].appl.headerLength "80 bit"
param *.node[*].appl.maxOffset "0.005 s"
param *.node[*].appl.sendBeacons true
param *.node[*].appl.sendData false
param *.node[*].applType "\"TraCIDemo11p\""
param *.node[*].mobilityType "\"TraCIMobility\""
param *.node[*].mobilityType.debug true
param *.node[*].veinsmobility.x 0
param *.node[*].veinsmobility.y 0
param *.node[*].veinsmobility.z 1.895
param *.node[*].veinsmobilityType "\"org.car2x.veins.modules.mobility.traci.TraCIMobility\""
param *.node[*].veinsmobilityType.debug true
param *.obstacles.debug false
param *.playgroundSizeX 2000m
param *.playgroundSizeY 2000m
param *.playgroundSizeZ 50m
param *.world.use2D false
param *.world.useTorus false

scalar . 	cwmax 	4096
scalar . 	cwmin 	256
scalar . 	slotlength 	95
scalar . 	txPower 	25.12
scalar RSUExampleScenario2.node[6].nic.mac1609_4 	TotalLostPackets 	0
scalar RSUExampleScenario2.node[6].nic.mac1609_4 	delayMedio 	0.000722477227
scalar RSUExampleScenario2.node[6].nic.mac1609_4 	throughputMedioBPS 	5669382.8529902
scalar RSUExampleScenario2.node[5].nic.mac1609_4 	TotalLostPackets 	41
scalar RSUExampleScenario2.node[5].nic.mac1609_4 	delayMedio 	0.005009027234
scalar RSUExampleScenario2.node[5].nic.mac1609_4 	throughputMedioBPS 	817723.64342107
scalar RSUExampleScenario2.node[0].nic.mac1609_4 	TotalLostPackets 	802
scalar RSUExampleScenario2.node[0].nic.mac1609_4 	delayMedio 	0.005145371728
scalar RSUExampleScenario2.node[0].nic.mac1609_4 	throughputMedioBPS 	796055.21556148
scalar RSUExampleScenario2.node[14].nic.mac1609_4 	TotalLostPackets 	602
scalar RSUExampleScenario2.node[14].nic.mac1609_4 	delayMedio 	0.006742985718
scalar RSUExampleScenario2.node[14].nic.mac1609_4 	throughputMedioBPS 	607446.04412974
scalar RSUExampleScenario2.node[7].nic.mac1609_4 	TotalLostPackets 	509
scalar RSUExampleScenario2.node[7].nic.mac1609_4 	delayMedio 	0.00683082807
scalar RSUExampleScenario2.node[7].nic.mac1609_4 	throughputMedioBPS 	599634.47445546
scalar RSUExampleScenario2.node[2].nic.mac1609_4 	TotalLostPackets 	1427
scalar RSUExampleScenario2.node[2].nic.mac1609_4 	delayMedio 	0.006844875618
scalar RSUExampleScenario2.node[2].nic.mac1609_4 	throughputMedioBPS 	598403.86132201
scalar RSUExampleScenario2.node[8].nic.mac1609_4 	TotalLostPackets 	537
scalar RSUExampleScenario2.node[8].nic.mac1609_4 	delayMedio 	0.006853087222
scalar RSUExampleScenario2.node[8].nic.mac1609_4 	throughputMedioBPS 	597686.83327981
scalar RSUExampleScenario2.node[3].nic.mac1609_4 	TotalLostPackets 	835
scalar RSUExampleScenario2.node[3].nic.mac1609_4 	delayMedio 	0.005341237634
scalar RSUExampleScenario2.node[3].nic.mac1609_4 	throughputMedioBPS 	766863.4651409
scalar RSUExampleScenario2.node[11].nic.mac1609_4 	TotalLostPackets 	1591
scalar RSUExampleScenario2.node[11].nic.mac1609_4 	delayMedio 	0.006984259822
scalar RSUExampleScenario2.node[11].nic.mac1609_4 	throughputMedioBPS 	586461.57277363
scalar RSUExampleScenario2.node[17].nic.mac1609_4 	TotalLostPackets 	551
scalar RSUExampleScenario2.node[17].nic.mac1609_4 	delayMedio 	0.005214470373
scalar RSUExampleScenario2.node[17].nic.mac1609_4 	throughputMedioBPS 	785506.42867675
scalar RSUExampleScenario2.node[27].nic.mac1609_4 	TotalLostPackets 	717
scalar RSUExampleScenario2.node[27].nic.mac1609_4 	delayMedio 	0.012460658213
scalar RSUExampleScenario2.node[27].nic.mac1609_4 	throughputMedioBPS 	328714.57751503
scalar RSUExampleScenario2.node[12].nic.mac1609_4 	TotalLostPackets 	1569
scalar RSUExampleScenario2.node[12].nic.mac1609_4 	delayMedio 	0.007406901532
scalar RSUExampleScenario2.node[12].nic.mac1609_4 	throughputMedioBPS 	552997.76601058
scalar RSUExampleScenario2.node[18].nic.mac1609_4 	TotalLostPackets 	1139
scalar RSUExampleScenario2.node[18].nic.mac1609_4 	delayMedio 	0.004547836032
scalar RSUExampleScenario2.node[18].nic.mac1609_4 	throughputMedioBPS 	900648.12600086
scalar RSUExampleScenario2.node[22].nic.mac1609_4 	TotalLostPackets 	925
scalar RSUExampleScenario2.node[22].nic.mac1609_4 	delayMedio 	0.005753208148
scalar RSUExampleScenario2.node[22].nic.mac1609_4 	throughputMedioBPS 	711950.60123838
scalar RSUExampleScenario2.node[28].nic.mac1609_4 	TotalLostPackets 	545
scalar RSUExampleScenario2.node[28].nic.mac1609_4 	delayMedio 	0.006636463318
scalar RSUExampleScenario2.node[28].nic.mac1609_4 	throughputMedioBPS 	617196.20882177
scalar RSUExampleScenario2.node[33].nic.mac1609_4 	TotalLostPackets 	80
scalar RSUExampleScenario2.node[33].nic.mac1609_4 	delayMedio 	0.000759026922
scalar RSUExampleScenario2.node[33].nic.mac1609_4 	throughputMedioBPS 	5396383.0277643
scalar RSUExampleScenario2.node[1].nic.mac1609_4 	TotalLostPackets 	816
scalar RSUExampleScenario2.node[1].nic.mac1609_4 	delayMedio 	0.005244091058
scalar RSUExampleScenario2.node[1].nic.mac1609_4 	throughputMedioBPS 	781069.57994669
scalar RSUExampleScenario2.node[29].nic.mac1609_4 	TotalLostPackets 	243
scalar RSUExampleScenario2.node[29].nic.mac1609_4 	delayMedio 	0.00993383802
scalar RSUExampleScenario2.node[29].nic.mac1609_4 	throughputMedioBPS 	412328.04397328
scalar RSUExampleScenario2.node[34].nic.mac1609_4 	TotalLostPackets 	160
scalar RSUExampleScenario2.node[34].nic.mac1609_4 	delayMedio 	0.000759346497
scalar RSUExampleScenario2.node[34].nic.mac1609_4 	throughputMedioBPS 	5394111.9307157
scalar RSUExampleScenario2.node[9].nic.mac1609_4 	TotalLostPackets 	683
scalar RSUExampleScenario2.node[9].nic.mac1609_4 	delayMedio 	0.006111686176
scalar RSUExampleScenario2.node[9].nic.mac1609_4 	throughputMedioBPS 	670191.47936087
scalar RSUExampleScenario2.node[15].nic.mac1609_4 	TotalLostPackets 	769
scalar RSUExampleScenario2.node[15].nic.mac1609_4 	delayMedio 	0.007306754785
scalar RSUExampleScenario2.node[15].nic.mac1609_4 	throughputMedioBPS 	560577.18101756
scalar RSUExampleScenario2.node[20].nic.mac1609_4 	TotalLostPackets 	141
scalar RSUExampleScenario2.node[20].nic.mac1609_4 	delayMedio 	0.0031810158
scalar RSUExampleScenario2.node[20].nic.mac1609_4 	throughputMedioBPS 	1287638.9989145
scalar RSUExampleScenario2.node[23].nic.mac1609_4 	TotalLostPackets 	789
scalar RSUExampleScenario2.node[23].nic.mac1609_4 	delayMedio 	0.004803037108
scalar RSUExampleScenario2.node[23].nic.mac1609_4 	throughputMedioBPS 	852793.74442474
scalar RSUExampleScenario2.node[25].nic.mac1609_4 	TotalLostPackets 	542
scalar RSUExampleScenario2.node[25].nic.mac1609_4 	delayMedio 	0.006437059777
scalar RSUExampleScenario2.node[25].nic.mac1609_4 	throughputMedioBPS 	636315.3585196
scalar RSUExampleScenario2.node[4].nic.mac1609_4 	TotalLostPackets 	803
scalar RSUExampleScenario2.node[4].nic.mac1609_4 	delayMedio 	0.005416154443
scalar RSUExampleScenario2.node[4].nic.mac1609_4 	throughputMedioBPS 	756256.13022134
scalar RSUExampleScenario2.node[19].nic.mac1609_4 	TotalLostPackets 	834
scalar RSUExampleScenario2.node[19].nic.mac1609_4 	delayMedio 	0.005384757494
scalar RSUExampleScenario2.node[19].nic.mac1609_4 	throughputMedioBPS 	760665.6390482
scalar RSUExampleScenario2.node[21].nic.mac1609_4 	TotalLostPackets 	744
scalar RSUExampleScenario2.node[21].nic.mac1609_4 	delayMedio 	0.005652049283
scalar RSUExampleScenario2.node[21].nic.mac1609_4 	throughputMedioBPS 	724692.9024716
scalar RSUExampleScenario2.node[24].nic.mac1609_4 	TotalLostPackets 	51
scalar RSUExampleScenario2.node[24].nic.mac1609_4 	delayMedio 	0.003249594355
scalar RSUExampleScenario2.node[24].nic.mac1609_4 	throughputMedioBPS 	1260465.0159223
scalar RSUExampleScenario2.node[26].nic.mac1609_4 	TotalLostPackets 	557
scalar RSUExampleScenario2.node[26].nic.mac1609_4 	delayMedio 	0.005910203265
scalar RSUExampleScenario2.node[26].nic.mac1609_4 	throughputMedioBPS 	693038.76974397
scalar RSUExampleScenario2.node[30].nic.mac1609_4 	TotalLostPackets 	357
scalar RSUExampleScenario2.node[30].nic.mac1609_4 	delayMedio 	0.007428852857
scalar RSUExampleScenario2.node[30].nic.mac1609_4 	throughputMedioBPS 	551363.72719127
scalar RSUExampleScenario2.node[31].nic.mac1609_4 	TotalLostPackets 	190
scalar RSUExampleScenario2.node[31].nic.mac1609_4 	delayMedio 	0.01260066752
scalar RSUExampleScenario2.node[31].nic.mac1609_4 	throughputMedioBPS 	325062.14402194
scalar RSUExampleScenario2.node[32].nic.mac1609_4 	TotalLostPackets 	40
scalar RSUExampleScenario2.node[32].nic.mac1609_4 	delayMedio 	0.000722480668
scalar RSUExampleScenario2.node[32].nic.mac1609_4 	throughputMedioBPS 	5669355.8506366
scalar RSUExampleScenario2.node[35].nic.mac1609_4 	TotalLostPackets 	60
scalar RSUExampleScenario2.node[35].nic.mac1609_4 	delayMedio 	0.000768315726
scalar RSUExampleScenario2.node[35].nic.mac1609_4 	throughputMedioBPS 	5331141.6939546
scalar RSUExampleScenario2.node[10].nic.mac1609_4 	TotalLostPackets 	678
scalar RSUExampleScenario2.node[10].nic.mac1609_4 	delayMedio 	0.005959206724
scalar RSUExampleScenario2.node[10].nic.mac1609_4 	throughputMedioBPS 	687339.8070222
scalar RSUExampleScenario2.node[13].nic.mac1609_4 	TotalLostPackets 	1591
scalar RSUExampleScenario2.node[13].nic.mac1609_4 	delayMedio 	0.007007700286
scalar RSUExampleScenario2.node[13].nic.mac1609_4 	throughputMedioBPS 	584499.8833914
scalar RSUExampleScenario2.node[16].nic.mac1609_4 	TotalLostPackets 	579
scalar RSUExampleScenario2.node[16].nic.mac1609_4 	delayMedio 	0.005841650977
scalar RSUExampleScenario2.node[16].nic.mac1609_4 	throughputMedioBPS 	701171.64075912
