version 2
run v1-85-20171204-14:21:00-5821
attr configname v1
attr cwmax 1024
attr cwmin 256
attr datetime 20171204-14:21:00
attr experiment v1
attr inifile omnetpp.ini
attr iterationvars "$cwmin=256, $cwmax=1024, $slotlength=35, $txPower=100"
attr iterationvars2 "$cwmin=256, $cwmax=1024, $slotlength=35, $txPower=100, $repetition=0"
attr measurement "$cwmin=256, $cwmax=1024, $slotlength=35, $txPower=100"
attr network RSUExampleScenario2
attr processid 5821
attr repetition 0
attr replication #0
attr resultdir results
attr runnumber 85
attr seedset 85
attr slotlength 35
attr txPower 100
param **.coreDebug true
param **.debug true
param *.**.nic.mac1609_4.bitrate 6Mbps
param *.**.nic.mac1609_4.cwmax_ "${cwmax=1024, 2048, 4096}"
param *.**.nic.mac1609_4.cwmin_ "${cwmin=256, 512}"
param *.**.nic.mac1609_4.slotlength_ "${slotlength=5..100 step 5}ms"
param *.**.nic.mac1609_4.txPower "${txPower=1.26, 2.51, 3.98, 10, 15.85, 25.12, 50.12, 100, 251.19, 501.19, 794.33, 1258.93, 1584.89}mW"
param *.**.nic.mac1609_4.useServiceChannel false
param *.**.nic.phy80211p.analogueModels "xmldoc(\"config.xml\")"
param *.**.nic.phy80211p.decider "xmldoc(\"config.xml\")"
param *.**.nic.phy80211p.sensitivity -89dBm
param *.**.nic.phy80211p.thermalNoise -110dBm
param *.**.nic.phy80211p.usePropagationDelay true
param *.**.nic.phy80211p.useThermalNoise true
param *.annotations.draw false
param *.connectionManager.alpha 2.0
param *.connectionManager.carrierFrequency "5.890e9 Hz"
param *.connectionManager.drawMaxIntfDist false
param *.connectionManager.maxInterfDist 2600m
param *.connectionManager.pMax 20mW
param *.connectionManager.sat -89dBm
param *.connectionManager.sendDirect true
param *.manager.autoShutdown true
param *.manager.host "\"localhost\""
param *.manager.launchConfig "xmldoc(\"osm.launchd.xml\")"
param *.manager.margin 25
param *.manager.moduleDisplayString "\"\""
param *.manager.moduleName "\"node\""
param *.manager.moduleType "\"org.car2x.veins.nodes.Car\""
param *.manager.port 9999
param *.manager.updateInterval 1s
param *.node[*].appl.beaconInterval "0.1 s"
param *.node[*].appl.beaconLengthBits "3960 bit"
param *.node[*].appl.beaconPriority 3
param *.node[*].appl.dataLengthBits "3960 bit"
param *.node[*].appl.dataOnSch false
param *.node[*].appl.dataPriority 2
param *.node[*].appl.debug false
param *.node[*].appl.headerLength "80 bit"
param *.node[*].appl.maxOffset "0.005 s"
param *.node[*].appl.sendBeacons true
param *.node[*].appl.sendData false
param *.node[*].applType "\"TraCIDemo11p\""
param *.node[*].mobilityType "\"TraCIMobility\""
param *.node[*].mobilityType.debug true
param *.node[*].veinsmobility.x 0
param *.node[*].veinsmobility.y 0
param *.node[*].veinsmobility.z 1.895
param *.node[*].veinsmobilityType "\"org.car2x.veins.modules.mobility.traci.TraCIMobility\""
param *.node[*].veinsmobilityType.debug true
param *.obstacles.debug false
param *.playgroundSizeX 2000m
param *.playgroundSizeY 2000m
param *.playgroundSizeZ 50m
param *.world.use2D false
param *.world.useTorus false

scalar . 	cwmax 	1024
scalar . 	cwmin 	256
scalar . 	slotlength 	35
scalar . 	txPower 	100
scalar RSUExampleScenario2.node[6].nic.mac1609_4 	TotalLostPackets 	0
scalar RSUExampleScenario2.node[6].nic.mac1609_4 	delayMedio 	0.000723259324
scalar RSUExampleScenario2.node[6].nic.mac1609_4 	throughputMedioBPS 	5663252.2588876
scalar RSUExampleScenario2.node[5].nic.mac1609_4 	TotalLostPackets 	0
scalar RSUExampleScenario2.node[5].nic.mac1609_4 	delayMedio 	0.005605599998
scalar RSUExampleScenario2.node[5].nic.mac1609_4 	throughputMedioBPS 	730697.87383055
scalar RSUExampleScenario2.node[0].nic.mac1609_4 	TotalLostPackets 	0
scalar RSUExampleScenario2.node[0].nic.mac1609_4 	delayMedio 	0.005478239534
scalar RSUExampleScenario2.node[0].nic.mac1609_4 	throughputMedioBPS 	747685.45155568
scalar RSUExampleScenario2.node[14].nic.mac1609_4 	TotalLostPackets 	4
scalar RSUExampleScenario2.node[14].nic.mac1609_4 	delayMedio 	0.00639904107
scalar RSUExampleScenario2.node[14].nic.mac1609_4 	throughputMedioBPS 	640095.90737738
scalar RSUExampleScenario2.node[7].nic.mac1609_4 	TotalLostPackets 	4
scalar RSUExampleScenario2.node[7].nic.mac1609_4 	delayMedio 	0.006064153196
scalar RSUExampleScenario2.node[7].nic.mac1609_4 	throughputMedioBPS 	675444.67757778
scalar RSUExampleScenario2.node[2].nic.mac1609_4 	TotalLostPackets 	4
scalar RSUExampleScenario2.node[2].nic.mac1609_4 	delayMedio 	0.005647898692
scalar RSUExampleScenario2.node[2].nic.mac1609_4 	throughputMedioBPS 	725225.47298235
scalar RSUExampleScenario2.node[8].nic.mac1609_4 	TotalLostPackets 	4
scalar RSUExampleScenario2.node[8].nic.mac1609_4 	delayMedio 	0.005886671235
scalar RSUExampleScenario2.node[8].nic.mac1609_4 	throughputMedioBPS 	695809.19949678
scalar RSUExampleScenario2.node[3].nic.mac1609_4 	TotalLostPackets 	3
scalar RSUExampleScenario2.node[3].nic.mac1609_4 	delayMedio 	0.005023547483
scalar RSUExampleScenario2.node[3].nic.mac1609_4 	throughputMedioBPS 	815360.06449583
scalar RSUExampleScenario2.node[11].nic.mac1609_4 	TotalLostPackets 	2
scalar RSUExampleScenario2.node[11].nic.mac1609_4 	delayMedio 	0.005647396028
scalar RSUExampleScenario2.node[11].nic.mac1609_4 	throughputMedioBPS 	725290.02385519
scalar RSUExampleScenario2.node[17].nic.mac1609_4 	TotalLostPackets 	4
scalar RSUExampleScenario2.node[17].nic.mac1609_4 	delayMedio 	0.002640182072
scalar RSUExampleScenario2.node[17].nic.mac1609_4 	throughputMedioBPS 	1551408.1558041
scalar RSUExampleScenario2.node[27].nic.mac1609_4 	TotalLostPackets 	4
scalar RSUExampleScenario2.node[27].nic.mac1609_4 	delayMedio 	0.005411772149
scalar RSUExampleScenario2.node[27].nic.mac1609_4 	throughputMedioBPS 	756868.52421807
scalar RSUExampleScenario2.node[12].nic.mac1609_4 	TotalLostPackets 	2
scalar RSUExampleScenario2.node[12].nic.mac1609_4 	delayMedio 	0.005648710814
scalar RSUExampleScenario2.node[12].nic.mac1609_4 	throughputMedioBPS 	725121.20643088
scalar RSUExampleScenario2.node[18].nic.mac1609_4 	TotalLostPackets 	4
scalar RSUExampleScenario2.node[18].nic.mac1609_4 	delayMedio 	0.003297607919
scalar RSUExampleScenario2.node[18].nic.mac1609_4 	throughputMedioBPS 	1242112.4949827
scalar RSUExampleScenario2.node[22].nic.mac1609_4 	TotalLostPackets 	4
scalar RSUExampleScenario2.node[22].nic.mac1609_4 	delayMedio 	0.004024236935
scalar RSUExampleScenario2.node[22].nic.mac1609_4 	throughputMedioBPS 	1017832.7135929
scalar RSUExampleScenario2.node[28].nic.mac1609_4 	TotalLostPackets 	4
scalar RSUExampleScenario2.node[28].nic.mac1609_4 	delayMedio 	0.005747664343
scalar RSUExampleScenario2.node[28].nic.mac1609_4 	throughputMedioBPS 	712637.30027601
scalar RSUExampleScenario2.node[33].nic.mac1609_4 	TotalLostPackets 	0
scalar RSUExampleScenario2.node[33].nic.mac1609_4 	delayMedio 	0.000827518475
scalar RSUExampleScenario2.node[33].nic.mac1609_4 	throughputMedioBPS 	4949738.4309397
scalar RSUExampleScenario2.node[1].nic.mac1609_4 	TotalLostPackets 	3
scalar RSUExampleScenario2.node[1].nic.mac1609_4 	delayMedio 	0.005001879115
scalar RSUExampleScenario2.node[1].nic.mac1609_4 	throughputMedioBPS 	818892.2414891
scalar RSUExampleScenario2.node[29].nic.mac1609_4 	TotalLostPackets 	4
scalar RSUExampleScenario2.node[29].nic.mac1609_4 	delayMedio 	0.004999262487
scalar RSUExampleScenario2.node[29].nic.mac1609_4 	throughputMedioBPS 	819320.85197762
scalar RSUExampleScenario2.node[34].nic.mac1609_4 	TotalLostPackets 	0
scalar RSUExampleScenario2.node[34].nic.mac1609_4 	delayMedio 	0.000799017863
scalar RSUExampleScenario2.node[34].nic.mac1609_4 	throughputMedioBPS 	5126293.401697
scalar RSUExampleScenario2.node[9].nic.mac1609_4 	TotalLostPackets 	4
scalar RSUExampleScenario2.node[9].nic.mac1609_4 	delayMedio 	0.005285125939
scalar RSUExampleScenario2.node[9].nic.mac1609_4 	throughputMedioBPS 	775005.18386709
scalar RSUExampleScenario2.node[15].nic.mac1609_4 	TotalLostPackets 	2
scalar RSUExampleScenario2.node[15].nic.mac1609_4 	delayMedio 	0.005761533308
scalar RSUExampleScenario2.node[15].nic.mac1609_4 	throughputMedioBPS 	710921.86418305
scalar RSUExampleScenario2.node[20].nic.mac1609_4 	TotalLostPackets 	4
scalar RSUExampleScenario2.node[20].nic.mac1609_4 	delayMedio 	0.002955834909
scalar RSUExampleScenario2.node[20].nic.mac1609_4 	throughputMedioBPS 	1385733.6845728
scalar RSUExampleScenario2.node[23].nic.mac1609_4 	TotalLostPackets 	3
scalar RSUExampleScenario2.node[23].nic.mac1609_4 	delayMedio 	0.004033352888
scalar RSUExampleScenario2.node[23].nic.mac1609_4 	throughputMedioBPS 	1015532.266395
scalar RSUExampleScenario2.node[25].nic.mac1609_4 	TotalLostPackets 	4
scalar RSUExampleScenario2.node[25].nic.mac1609_4 	delayMedio 	0.004678174834
scalar RSUExampleScenario2.node[25].nic.mac1609_4 	throughputMedioBPS 	875555.13543531
scalar RSUExampleScenario2.node[4].nic.mac1609_4 	TotalLostPackets 	3
scalar RSUExampleScenario2.node[4].nic.mac1609_4 	delayMedio 	0.005060727401
scalar RSUExampleScenario2.node[4].nic.mac1609_4 	throughputMedioBPS 	809369.81498434
scalar RSUExampleScenario2.node[19].nic.mac1609_4 	TotalLostPackets 	2
scalar RSUExampleScenario2.node[19].nic.mac1609_4 	delayMedio 	0.003732463794
scalar RSUExampleScenario2.node[19].nic.mac1609_4 	throughputMedioBPS 	1097398.4547926
scalar RSUExampleScenario2.node[21].nic.mac1609_4 	TotalLostPackets 	4
scalar RSUExampleScenario2.node[21].nic.mac1609_4 	delayMedio 	0.003703120613
scalar RSUExampleScenario2.node[21].nic.mac1609_4 	throughputMedioBPS 	1106094.1374629
scalar RSUExampleScenario2.node[24].nic.mac1609_4 	TotalLostPackets 	4
scalar RSUExampleScenario2.node[24].nic.mac1609_4 	delayMedio 	0.003316691419
scalar RSUExampleScenario2.node[24].nic.mac1609_4 	throughputMedioBPS 	1234965.6576799
scalar RSUExampleScenario2.node[26].nic.mac1609_4 	TotalLostPackets 	3
scalar RSUExampleScenario2.node[26].nic.mac1609_4 	delayMedio 	0.004974315639
scalar RSUExampleScenario2.node[26].nic.mac1609_4 	throughputMedioBPS 	823429.85392834
scalar RSUExampleScenario2.node[30].nic.mac1609_4 	TotalLostPackets 	4
scalar RSUExampleScenario2.node[30].nic.mac1609_4 	delayMedio 	0.005168283334
scalar RSUExampleScenario2.node[30].nic.mac1609_4 	throughputMedioBPS 	792526.20943195
scalar RSUExampleScenario2.node[31].nic.mac1609_4 	TotalLostPackets 	4
scalar RSUExampleScenario2.node[31].nic.mac1609_4 	delayMedio 	0.005999685346
scalar RSUExampleScenario2.node[31].nic.mac1609_4 	throughputMedioBPS 	682702.46922353
scalar RSUExampleScenario2.node[32].nic.mac1609_4 	TotalLostPackets 	0
scalar RSUExampleScenario2.node[32].nic.mac1609_4 	delayMedio 	0.000815424288
scalar RSUExampleScenario2.node[32].nic.mac1609_4 	throughputMedioBPS 	5023151.8225771
scalar RSUExampleScenario2.node[35].nic.mac1609_4 	TotalLostPackets 	0
scalar RSUExampleScenario2.node[35].nic.mac1609_4 	delayMedio 	0.000822713952
scalar RSUExampleScenario2.node[35].nic.mac1609_4 	throughputMedioBPS 	4978644.1426031
scalar RSUExampleScenario2.node[10].nic.mac1609_4 	TotalLostPackets 	4
scalar RSUExampleScenario2.node[10].nic.mac1609_4 	delayMedio 	0.005394923655
scalar RSUExampleScenario2.node[10].nic.mac1609_4 	throughputMedioBPS 	759232.24527185
scalar RSUExampleScenario2.node[13].nic.mac1609_4 	TotalLostPackets 	2
scalar RSUExampleScenario2.node[13].nic.mac1609_4 	delayMedio 	0.005800475104
scalar RSUExampleScenario2.node[13].nic.mac1609_4 	throughputMedioBPS 	706149.05269837
scalar RSUExampleScenario2.node[16].nic.mac1609_4 	TotalLostPackets 	4
scalar RSUExampleScenario2.node[16].nic.mac1609_4 	delayMedio 	0.003605260131
scalar RSUExampleScenario2.node[16].nic.mac1609_4 	throughputMedioBPS 	1136117.7422685
