version 2
run v1-112-20171204-16:21:12-5821
attr configname v1
attr cwmax 1024
attr cwmin 256
attr datetime 20171204-16:21:12
attr experiment v1
attr inifile omnetpp.ini
attr iterationvars "$cwmin=256, $cwmax=1024, $slotlength=45, $txPower=251.19"
attr iterationvars2 "$cwmin=256, $cwmax=1024, $slotlength=45, $txPower=251.19, $repetition=0"
attr measurement "$cwmin=256, $cwmax=1024, $slotlength=45, $txPower=251.19"
attr network RSUExampleScenario2
attr processid 5821
attr repetition 0
attr replication #0
attr resultdir results
attr runnumber 112
attr seedset 112
attr slotlength 45
attr txPower 251.19
param **.coreDebug true
param **.debug true
param *.**.nic.mac1609_4.bitrate 6Mbps
param *.**.nic.mac1609_4.cwmax_ "${cwmax=1024, 2048, 4096}"
param *.**.nic.mac1609_4.cwmin_ "${cwmin=256, 512}"
param *.**.nic.mac1609_4.slotlength_ "${slotlength=5..100 step 5}ms"
param *.**.nic.mac1609_4.txPower "${txPower=1.26, 2.51, 3.98, 10, 15.85, 25.12, 50.12, 100, 251.19, 501.19, 794.33, 1258.93, 1584.89}mW"
param *.**.nic.mac1609_4.useServiceChannel false
param *.**.nic.phy80211p.analogueModels "xmldoc(\"config.xml\")"
param *.**.nic.phy80211p.decider "xmldoc(\"config.xml\")"
param *.**.nic.phy80211p.sensitivity -89dBm
param *.**.nic.phy80211p.thermalNoise -110dBm
param *.**.nic.phy80211p.usePropagationDelay true
param *.**.nic.phy80211p.useThermalNoise true
param *.annotations.draw false
param *.connectionManager.alpha 2.0
param *.connectionManager.carrierFrequency "5.890e9 Hz"
param *.connectionManager.drawMaxIntfDist false
param *.connectionManager.maxInterfDist 2600m
param *.connectionManager.pMax 20mW
param *.connectionManager.sat -89dBm
param *.connectionManager.sendDirect true
param *.manager.autoShutdown true
param *.manager.host "\"localhost\""
param *.manager.launchConfig "xmldoc(\"osm.launchd.xml\")"
param *.manager.margin 25
param *.manager.moduleDisplayString "\"\""
param *.manager.moduleName "\"node\""
param *.manager.moduleType "\"org.car2x.veins.nodes.Car\""
param *.manager.port 9999
param *.manager.updateInterval 1s
param *.node[*].appl.beaconInterval "0.1 s"
param *.node[*].appl.beaconLengthBits "3960 bit"
param *.node[*].appl.beaconPriority 3
param *.node[*].appl.dataLengthBits "3960 bit"
param *.node[*].appl.dataOnSch false
param *.node[*].appl.dataPriority 2
param *.node[*].appl.debug false
param *.node[*].appl.headerLength "80 bit"
param *.node[*].appl.maxOffset "0.005 s"
param *.node[*].appl.sendBeacons true
param *.node[*].appl.sendData false
param *.node[*].applType "\"TraCIDemo11p\""
param *.node[*].mobilityType "\"TraCIMobility\""
param *.node[*].mobilityType.debug true
param *.node[*].veinsmobility.x 0
param *.node[*].veinsmobility.y 0
param *.node[*].veinsmobility.z 1.895
param *.node[*].veinsmobilityType "\"org.car2x.veins.modules.mobility.traci.TraCIMobility\""
param *.node[*].veinsmobilityType.debug true
param *.obstacles.debug false
param *.playgroundSizeX 2000m
param *.playgroundSizeY 2000m
param *.playgroundSizeZ 50m
param *.world.use2D false
param *.world.useTorus false

scalar . 	cwmax 	1024
scalar . 	cwmin 	256
scalar . 	slotlength 	45
scalar . 	txPower 	251.19
scalar RSUExampleScenario2.node[6].nic.mac1609_4 	TotalLostPackets 	0
scalar RSUExampleScenario2.node[6].nic.mac1609_4 	delayMedio 	0.00079564774
scalar RSUExampleScenario2.node[6].nic.mac1609_4 	throughputMedioBPS 	5148006.8278325
scalar RSUExampleScenario2.node[5].nic.mac1609_4 	TotalLostPackets 	0
scalar RSUExampleScenario2.node[5].nic.mac1609_4 	delayMedio 	0.005617182104
scalar RSUExampleScenario2.node[5].nic.mac1609_4 	throughputMedioBPS 	729191.2428659
scalar RSUExampleScenario2.node[0].nic.mac1609_4 	TotalLostPackets 	0
scalar RSUExampleScenario2.node[0].nic.mac1609_4 	delayMedio 	0.00545351433
scalar RSUExampleScenario2.node[0].nic.mac1609_4 	throughputMedioBPS 	751075.31627648
scalar RSUExampleScenario2.node[14].nic.mac1609_4 	TotalLostPackets 	2
scalar RSUExampleScenario2.node[14].nic.mac1609_4 	delayMedio 	0.006439211562
scalar RSUExampleScenario2.node[14].nic.mac1609_4 	throughputMedioBPS 	636102.72162538
scalar RSUExampleScenario2.node[7].nic.mac1609_4 	TotalLostPackets 	2
scalar RSUExampleScenario2.node[7].nic.mac1609_4 	delayMedio 	0.005458708587
scalar RSUExampleScenario2.node[7].nic.mac1609_4 	throughputMedioBPS 	750360.62734966
scalar RSUExampleScenario2.node[2].nic.mac1609_4 	TotalLostPackets 	1
scalar RSUExampleScenario2.node[2].nic.mac1609_4 	delayMedio 	0.005192502383
scalar RSUExampleScenario2.node[2].nic.mac1609_4 	throughputMedioBPS 	788829.68125187
scalar RSUExampleScenario2.node[8].nic.mac1609_4 	TotalLostPackets 	2
scalar RSUExampleScenario2.node[8].nic.mac1609_4 	delayMedio 	0.005360556043
scalar RSUExampleScenario2.node[8].nic.mac1609_4 	throughputMedioBPS 	764099.83719491
scalar RSUExampleScenario2.node[3].nic.mac1609_4 	TotalLostPackets 	2
scalar RSUExampleScenario2.node[3].nic.mac1609_4 	delayMedio 	0.004644598716
scalar RSUExampleScenario2.node[3].nic.mac1609_4 	throughputMedioBPS 	881884.58257567
scalar RSUExampleScenario2.node[11].nic.mac1609_4 	TotalLostPackets 	2
scalar RSUExampleScenario2.node[11].nic.mac1609_4 	delayMedio 	0.005068764314
scalar RSUExampleScenario2.node[11].nic.mac1609_4 	throughputMedioBPS 	808086.49723479
scalar RSUExampleScenario2.node[17].nic.mac1609_4 	TotalLostPackets 	2
scalar RSUExampleScenario2.node[17].nic.mac1609_4 	delayMedio 	0.002786611869
scalar RSUExampleScenario2.node[17].nic.mac1609_4 	throughputMedioBPS 	1469885.3637111
scalar RSUExampleScenario2.node[27].nic.mac1609_4 	TotalLostPackets 	2
scalar RSUExampleScenario2.node[27].nic.mac1609_4 	delayMedio 	0.004731659538
scalar RSUExampleScenario2.node[27].nic.mac1609_4 	throughputMedioBPS 	865658.22567248
scalar RSUExampleScenario2.node[12].nic.mac1609_4 	TotalLostPackets 	2
scalar RSUExampleScenario2.node[12].nic.mac1609_4 	delayMedio 	0.005061699031
scalar RSUExampleScenario2.node[12].nic.mac1609_4 	throughputMedioBPS 	809214.45045283
scalar RSUExampleScenario2.node[18].nic.mac1609_4 	TotalLostPackets 	2
scalar RSUExampleScenario2.node[18].nic.mac1609_4 	delayMedio 	0.002778233256
scalar RSUExampleScenario2.node[18].nic.mac1609_4 	throughputMedioBPS 	1474318.25302
scalar RSUExampleScenario2.node[22].nic.mac1609_4 	TotalLostPackets 	2
scalar RSUExampleScenario2.node[22].nic.mac1609_4 	delayMedio 	0.003391623531
scalar RSUExampleScenario2.node[22].nic.mac1609_4 	throughputMedioBPS 	1207681.2070401
scalar RSUExampleScenario2.node[28].nic.mac1609_4 	TotalLostPackets 	2
scalar RSUExampleScenario2.node[28].nic.mac1609_4 	delayMedio 	0.004736879321
scalar RSUExampleScenario2.node[28].nic.mac1609_4 	throughputMedioBPS 	864704.31747511
scalar RSUExampleScenario2.node[33].nic.mac1609_4 	TotalLostPackets 	0
scalar RSUExampleScenario2.node[33].nic.mac1609_4 	delayMedio 	0.000817139595
scalar RSUExampleScenario2.node[33].nic.mac1609_4 	throughputMedioBPS 	5012607.4206426
scalar RSUExampleScenario2.node[1].nic.mac1609_4 	TotalLostPackets 	2
scalar RSUExampleScenario2.node[1].nic.mac1609_4 	delayMedio 	0.004618957581
scalar RSUExampleScenario2.node[1].nic.mac1609_4 	throughputMedioBPS 	886780.17246183
scalar RSUExampleScenario2.node[29].nic.mac1609_4 	TotalLostPackets 	2
scalar RSUExampleScenario2.node[29].nic.mac1609_4 	delayMedio 	0.004736484491
scalar RSUExampleScenario2.node[29].nic.mac1609_4 	throughputMedioBPS 	864776.39861897
scalar RSUExampleScenario2.node[34].nic.mac1609_4 	TotalLostPackets 	0
scalar RSUExampleScenario2.node[34].nic.mac1609_4 	delayMedio 	0.000795997544
scalar RSUExampleScenario2.node[34].nic.mac1609_4 	throughputMedioBPS 	5145744.5193064
scalar RSUExampleScenario2.node[9].nic.mac1609_4 	TotalLostPackets 	2
scalar RSUExampleScenario2.node[9].nic.mac1609_4 	delayMedio 	0.004875208896
scalar RSUExampleScenario2.node[9].nic.mac1609_4 	throughputMedioBPS 	840169.1266304
scalar RSUExampleScenario2.node[15].nic.mac1609_4 	TotalLostPackets 	2
scalar RSUExampleScenario2.node[15].nic.mac1609_4 	delayMedio 	0.005211361693
scalar RSUExampleScenario2.node[15].nic.mac1609_4 	throughputMedioBPS 	785974.9987418
scalar RSUExampleScenario2.node[20].nic.mac1609_4 	TotalLostPackets 	2
scalar RSUExampleScenario2.node[20].nic.mac1609_4 	delayMedio 	0.003214090729
scalar RSUExampleScenario2.node[20].nic.mac1609_4 	throughputMedioBPS 	1274388.4182202
scalar RSUExampleScenario2.node[23].nic.mac1609_4 	TotalLostPackets 	2
scalar RSUExampleScenario2.node[23].nic.mac1609_4 	delayMedio 	0.00337328121
scalar RSUExampleScenario2.node[23].nic.mac1609_4 	throughputMedioBPS 	1214248.0110138
scalar RSUExampleScenario2.node[25].nic.mac1609_4 	TotalLostPackets 	2
scalar RSUExampleScenario2.node[25].nic.mac1609_4 	delayMedio 	0.003862766214
scalar RSUExampleScenario2.node[25].nic.mac1609_4 	throughputMedioBPS 	1060379.9901198
scalar RSUExampleScenario2.node[4].nic.mac1609_4 	TotalLostPackets 	2
scalar RSUExampleScenario2.node[4].nic.mac1609_4 	delayMedio 	0.004675808118
scalar RSUExampleScenario2.node[4].nic.mac1609_4 	throughputMedioBPS 	875998.30801268
scalar RSUExampleScenario2.node[19].nic.mac1609_4 	TotalLostPackets 	2
scalar RSUExampleScenario2.node[19].nic.mac1609_4 	delayMedio 	0.002962497965
scalar RSUExampleScenario2.node[19].nic.mac1609_4 	throughputMedioBPS 	1382616.9836588
scalar RSUExampleScenario2.node[21].nic.mac1609_4 	TotalLostPackets 	2
scalar RSUExampleScenario2.node[21].nic.mac1609_4 	delayMedio 	0.003153790842
scalar RSUExampleScenario2.node[21].nic.mac1609_4 	throughputMedioBPS 	1298754.4848204
scalar RSUExampleScenario2.node[24].nic.mac1609_4 	TotalLostPackets 	2
scalar RSUExampleScenario2.node[24].nic.mac1609_4 	delayMedio 	0.003720791754
scalar RSUExampleScenario2.node[24].nic.mac1609_4 	throughputMedioBPS 	1100840.9689248
scalar RSUExampleScenario2.node[26].nic.mac1609_4 	TotalLostPackets 	1
scalar RSUExampleScenario2.node[26].nic.mac1609_4 	delayMedio 	0.004416212658
scalar RSUExampleScenario2.node[26].nic.mac1609_4 	throughputMedioBPS 	927491.56738018
scalar RSUExampleScenario2.node[30].nic.mac1609_4 	TotalLostPackets 	2
scalar RSUExampleScenario2.node[30].nic.mac1609_4 	delayMedio 	0.004750579014
scalar RSUExampleScenario2.node[30].nic.mac1609_4 	throughputMedioBPS 	862210.68796623
scalar RSUExampleScenario2.node[31].nic.mac1609_4 	TotalLostPackets 	2
scalar RSUExampleScenario2.node[31].nic.mac1609_4 	delayMedio 	0.005791825936
scalar RSUExampleScenario2.node[31].nic.mac1609_4 	throughputMedioBPS 	707203.57371842
scalar RSUExampleScenario2.node[32].nic.mac1609_4 	TotalLostPackets 	0
scalar RSUExampleScenario2.node[32].nic.mac1609_4 	delayMedio 	0.000800609742
scalar RSUExampleScenario2.node[32].nic.mac1609_4 	throughputMedioBPS 	5116100.6209126
scalar RSUExampleScenario2.node[35].nic.mac1609_4 	TotalLostPackets 	0
scalar RSUExampleScenario2.node[35].nic.mac1609_4 	delayMedio 	0.000812636898
scalar RSUExampleScenario2.node[35].nic.mac1609_4 	throughputMedioBPS 	5040381.5150452
scalar RSUExampleScenario2.node[10].nic.mac1609_4 	TotalLostPackets 	2
scalar RSUExampleScenario2.node[10].nic.mac1609_4 	delayMedio 	0.004935161075
scalar RSUExampleScenario2.node[10].nic.mac1609_4 	throughputMedioBPS 	829962.77895362
scalar RSUExampleScenario2.node[13].nic.mac1609_4 	TotalLostPackets 	2
scalar RSUExampleScenario2.node[13].nic.mac1609_4 	delayMedio 	0.005199371653
scalar RSUExampleScenario2.node[13].nic.mac1609_4 	throughputMedioBPS 	787787.50077022
scalar RSUExampleScenario2.node[16].nic.mac1609_4 	TotalLostPackets 	2
scalar RSUExampleScenario2.node[16].nic.mac1609_4 	delayMedio 	0.003138434813
scalar RSUExampleScenario2.node[16].nic.mac1609_4 	throughputMedioBPS 	1305109.1529897
