version 2
run v1-425-20171205-15:14:34-5821
attr configname v1
attr cwmax 2048
attr cwmin 256
attr datetime 20171205-15:14:34
attr experiment v1
attr inifile omnetpp.ini
attr iterationvars "$cwmin=256, $cwmax=2048, $slotlength=65, $txPower=501.19"
attr iterationvars2 "$cwmin=256, $cwmax=2048, $slotlength=65, $txPower=501.19, $repetition=0"
attr measurement "$cwmin=256, $cwmax=2048, $slotlength=65, $txPower=501.19"
attr network RSUExampleScenario2
attr processid 5821
attr repetition 0
attr replication #0
attr resultdir results
attr runnumber 425
attr seedset 425
attr slotlength 65
attr txPower 501.19
param **.coreDebug true
param **.debug true
param *.**.nic.mac1609_4.bitrate 6Mbps
param *.**.nic.mac1609_4.cwmax_ "${cwmax=1024, 2048, 4096}"
param *.**.nic.mac1609_4.cwmin_ "${cwmin=256, 512}"
param *.**.nic.mac1609_4.slotlength_ "${slotlength=5..100 step 5}ms"
param *.**.nic.mac1609_4.txPower "${txPower=1.26, 2.51, 3.98, 10, 15.85, 25.12, 50.12, 100, 251.19, 501.19, 794.33, 1258.93, 1584.89}mW"
param *.**.nic.mac1609_4.useServiceChannel false
param *.**.nic.phy80211p.analogueModels "xmldoc(\"config.xml\")"
param *.**.nic.phy80211p.decider "xmldoc(\"config.xml\")"
param *.**.nic.phy80211p.sensitivity -89dBm
param *.**.nic.phy80211p.thermalNoise -110dBm
param *.**.nic.phy80211p.usePropagationDelay true
param *.**.nic.phy80211p.useThermalNoise true
param *.annotations.draw false
param *.connectionManager.alpha 2.0
param *.connectionManager.carrierFrequency "5.890e9 Hz"
param *.connectionManager.drawMaxIntfDist false
param *.connectionManager.maxInterfDist 2600m
param *.connectionManager.pMax 20mW
param *.connectionManager.sat -89dBm
param *.connectionManager.sendDirect true
param *.manager.autoShutdown true
param *.manager.host "\"localhost\""
param *.manager.launchConfig "xmldoc(\"osm.launchd.xml\")"
param *.manager.margin 25
param *.manager.moduleDisplayString "\"\""
param *.manager.moduleName "\"node\""
param *.manager.moduleType "\"org.car2x.veins.nodes.Car\""
param *.manager.port 9999
param *.manager.updateInterval 1s
param *.node[*].appl.beaconInterval "0.1 s"
param *.node[*].appl.beaconLengthBits "3960 bit"
param *.node[*].appl.beaconPriority 3
param *.node[*].appl.dataLengthBits "3960 bit"
param *.node[*].appl.dataOnSch false
param *.node[*].appl.dataPriority 2
param *.node[*].appl.debug false
param *.node[*].appl.headerLength "80 bit"
param *.node[*].appl.maxOffset "0.005 s"
param *.node[*].appl.sendBeacons true
param *.node[*].appl.sendData false
param *.node[*].applType "\"TraCIDemo11p\""
param *.node[*].mobilityType "\"TraCIMobility\""
param *.node[*].mobilityType.debug true
param *.node[*].veinsmobility.x 0
param *.node[*].veinsmobility.y 0
param *.node[*].veinsmobility.z 1.895
param *.node[*].veinsmobilityType "\"org.car2x.veins.modules.mobility.traci.TraCIMobility\""
param *.node[*].veinsmobilityType.debug true
param *.obstacles.debug false
param *.playgroundSizeX 2000m
param *.playgroundSizeY 2000m
param *.playgroundSizeZ 50m
param *.world.use2D false
param *.world.useTorus false

scalar . 	cwmax 	2048
scalar . 	cwmin 	256
scalar . 	slotlength 	65
scalar . 	txPower 	501.19
scalar RSUExampleScenario2.node[6].nic.mac1609_4 	TotalLostPackets 	0
scalar RSUExampleScenario2.node[6].nic.mac1609_4 	delayMedio 	0.000723260338
scalar RSUExampleScenario2.node[6].nic.mac1609_4 	throughputMedioBPS 	5663244.3196533
scalar RSUExampleScenario2.node[5].nic.mac1609_4 	TotalLostPackets 	0
scalar RSUExampleScenario2.node[5].nic.mac1609_4 	delayMedio 	0.005637515709
scalar RSUExampleScenario2.node[5].nic.mac1609_4 	throughputMedioBPS 	726561.16832451
scalar RSUExampleScenario2.node[0].nic.mac1609_4 	TotalLostPackets 	0
scalar RSUExampleScenario2.node[0].nic.mac1609_4 	delayMedio 	0.005500477704
scalar RSUExampleScenario2.node[0].nic.mac1609_4 	throughputMedioBPS 	744662.59478981
scalar RSUExampleScenario2.node[14].nic.mac1609_4 	TotalLostPackets 	0
scalar RSUExampleScenario2.node[14].nic.mac1609_4 	delayMedio 	0.006623598747
scalar RSUExampleScenario2.node[14].nic.mac1609_4 	throughputMedioBPS 	618394.94755217
scalar RSUExampleScenario2.node[7].nic.mac1609_4 	TotalLostPackets 	0
scalar RSUExampleScenario2.node[7].nic.mac1609_4 	delayMedio 	0.005585865069
scalar RSUExampleScenario2.node[7].nic.mac1609_4 	throughputMedioBPS 	733279.43823482
scalar RSUExampleScenario2.node[2].nic.mac1609_4 	TotalLostPackets 	0
scalar RSUExampleScenario2.node[2].nic.mac1609_4 	delayMedio 	0.005325082106
scalar RSUExampleScenario2.node[2].nic.mac1609_4 	throughputMedioBPS 	769190.01775154
scalar RSUExampleScenario2.node[8].nic.mac1609_4 	TotalLostPackets 	0
scalar RSUExampleScenario2.node[8].nic.mac1609_4 	delayMedio 	0.005496281678
scalar RSUExampleScenario2.node[8].nic.mac1609_4 	throughputMedioBPS 	745231.09255402
scalar RSUExampleScenario2.node[3].nic.mac1609_4 	TotalLostPackets 	0
scalar RSUExampleScenario2.node[3].nic.mac1609_4 	delayMedio 	0.004750505026
scalar RSUExampleScenario2.node[3].nic.mac1609_4 	throughputMedioBPS 	862224.11669362
scalar RSUExampleScenario2.node[11].nic.mac1609_4 	TotalLostPackets 	0
scalar RSUExampleScenario2.node[11].nic.mac1609_4 	delayMedio 	0.00519509942
scalar RSUExampleScenario2.node[11].nic.mac1609_4 	throughputMedioBPS 	788435.34432669
scalar RSUExampleScenario2.node[17].nic.mac1609_4 	TotalLostPackets 	0
scalar RSUExampleScenario2.node[17].nic.mac1609_4 	delayMedio 	0.002883578197
scalar RSUExampleScenario2.node[17].nic.mac1609_4 	throughputMedioBPS 	1420457.40404
scalar RSUExampleScenario2.node[27].nic.mac1609_4 	TotalLostPackets 	0
scalar RSUExampleScenario2.node[27].nic.mac1609_4 	delayMedio 	0.005012762867
scalar RSUExampleScenario2.node[27].nic.mac1609_4 	throughputMedioBPS 	817114.25585229
scalar RSUExampleScenario2.node[12].nic.mac1609_4 	TotalLostPackets 	0
scalar RSUExampleScenario2.node[12].nic.mac1609_4 	delayMedio 	0.005187021595
scalar RSUExampleScenario2.node[12].nic.mac1609_4 	throughputMedioBPS 	789663.18630497
scalar RSUExampleScenario2.node[18].nic.mac1609_4 	TotalLostPackets 	0
scalar RSUExampleScenario2.node[18].nic.mac1609_4 	delayMedio 	0.00288491565
scalar RSUExampleScenario2.node[18].nic.mac1609_4 	throughputMedioBPS 	1419798.8771462
scalar RSUExampleScenario2.node[22].nic.mac1609_4 	TotalLostPackets 	0
scalar RSUExampleScenario2.node[22].nic.mac1609_4 	delayMedio 	0.003535793447
scalar RSUExampleScenario2.node[22].nic.mac1609_4 	throughputMedioBPS 	1158438.710142
scalar RSUExampleScenario2.node[28].nic.mac1609_4 	TotalLostPackets 	0
scalar RSUExampleScenario2.node[28].nic.mac1609_4 	delayMedio 	0.005012458702
scalar RSUExampleScenario2.node[28].nic.mac1609_4 	throughputMedioBPS 	817163.83987873
scalar RSUExampleScenario2.node[33].nic.mac1609_4 	TotalLostPackets 	0
scalar RSUExampleScenario2.node[33].nic.mac1609_4 	delayMedio 	0.000748012776
scalar RSUExampleScenario2.node[33].nic.mac1609_4 	throughputMedioBPS 	5475842.3024418
scalar RSUExampleScenario2.node[1].nic.mac1609_4 	TotalLostPackets 	0
scalar RSUExampleScenario2.node[1].nic.mac1609_4 	delayMedio 	0.004724695939
scalar RSUExampleScenario2.node[1].nic.mac1609_4 	throughputMedioBPS 	866934.09541069
scalar RSUExampleScenario2.node[29].nic.mac1609_4 	TotalLostPackets 	0
scalar RSUExampleScenario2.node[29].nic.mac1609_4 	delayMedio 	0.005012695249
scalar RSUExampleScenario2.node[29].nic.mac1609_4 	throughputMedioBPS 	817125.27818369
scalar RSUExampleScenario2.node[34].nic.mac1609_4 	TotalLostPackets 	0
scalar RSUExampleScenario2.node[34].nic.mac1609_4 	delayMedio 	0.000760475033
scalar RSUExampleScenario2.node[34].nic.mac1609_4 	throughputMedioBPS 	5386107.135306
scalar RSUExampleScenario2.node[9].nic.mac1609_4 	TotalLostPackets 	0
scalar RSUExampleScenario2.node[9].nic.mac1609_4 	delayMedio 	0.004995378359
scalar RSUExampleScenario2.node[9].nic.mac1609_4 	throughputMedioBPS 	819957.9101969
scalar RSUExampleScenario2.node[15].nic.mac1609_4 	TotalLostPackets 	0
scalar RSUExampleScenario2.node[15].nic.mac1609_4 	delayMedio 	0.005347889398
scalar RSUExampleScenario2.node[15].nic.mac1609_4 	throughputMedioBPS 	765909.63183823
scalar RSUExampleScenario2.node[20].nic.mac1609_4 	TotalLostPackets 	0
scalar RSUExampleScenario2.node[20].nic.mac1609_4 	delayMedio 	0.003338411783
scalar RSUExampleScenario2.node[20].nic.mac1609_4 	throughputMedioBPS 	1226930.728088
scalar RSUExampleScenario2.node[23].nic.mac1609_4 	TotalLostPackets 	0
scalar RSUExampleScenario2.node[23].nic.mac1609_4 	delayMedio 	0.00353854012
scalar RSUExampleScenario2.node[23].nic.mac1609_4 	throughputMedioBPS 	1157539.5109142
scalar RSUExampleScenario2.node[25].nic.mac1609_4 	TotalLostPackets 	0
scalar RSUExampleScenario2.node[25].nic.mac1609_4 	delayMedio 	0.004071083407
scalar RSUExampleScenario2.node[25].nic.mac1609_4 	throughputMedioBPS 	1006120.3838236
scalar RSUExampleScenario2.node[4].nic.mac1609_4 	TotalLostPackets 	0
scalar RSUExampleScenario2.node[4].nic.mac1609_4 	delayMedio 	0.004784183658
scalar RSUExampleScenario2.node[4].nic.mac1609_4 	throughputMedioBPS 	856154.42311641
scalar RSUExampleScenario2.node[19].nic.mac1609_4 	TotalLostPackets 	0
scalar RSUExampleScenario2.node[19].nic.mac1609_4 	delayMedio 	0.003084175393
scalar RSUExampleScenario2.node[19].nic.mac1609_4 	throughputMedioBPS 	1328069.7360245
scalar RSUExampleScenario2.node[21].nic.mac1609_4 	TotalLostPackets 	0
scalar RSUExampleScenario2.node[21].nic.mac1609_4 	delayMedio 	0.003281307106
scalar RSUExampleScenario2.node[21].nic.mac1609_4 	throughputMedioBPS 	1248283.0371042
scalar RSUExampleScenario2.node[24].nic.mac1609_4 	TotalLostPackets 	0
scalar RSUExampleScenario2.node[24].nic.mac1609_4 	delayMedio 	0.003898560778
scalar RSUExampleScenario2.node[24].nic.mac1609_4 	throughputMedioBPS 	1050644.1307923
scalar RSUExampleScenario2.node[26].nic.mac1609_4 	TotalLostPackets 	0
scalar RSUExampleScenario2.node[26].nic.mac1609_4 	delayMedio 	0.004358227609
scalar RSUExampleScenario2.node[26].nic.mac1609_4 	throughputMedioBPS 	939831.59384714
scalar RSUExampleScenario2.node[30].nic.mac1609_4 	TotalLostPackets 	0
scalar RSUExampleScenario2.node[30].nic.mac1609_4 	delayMedio 	0.004998995577
scalar RSUExampleScenario2.node[30].nic.mac1609_4 	throughputMedioBPS 	819364.59776833
scalar RSUExampleScenario2.node[31].nic.mac1609_4 	TotalLostPackets 	0
scalar RSUExampleScenario2.node[31].nic.mac1609_4 	delayMedio 	0.006156322452
scalar RSUExampleScenario2.node[31].nic.mac1609_4 	throughputMedioBPS 	665332.27137454
scalar RSUExampleScenario2.node[32].nic.mac1609_4 	TotalLostPackets 	0
scalar RSUExampleScenario2.node[32].nic.mac1609_4 	delayMedio 	0.000749898285
scalar RSUExampleScenario2.node[32].nic.mac1609_4 	throughputMedioBPS 	5462074.0977691
scalar RSUExampleScenario2.node[35].nic.mac1609_4 	TotalLostPackets 	0
scalar RSUExampleScenario2.node[35].nic.mac1609_4 	delayMedio 	0.000759848016
scalar RSUExampleScenario2.node[35].nic.mac1609_4 	throughputMedioBPS 	5390551.6799635
scalar RSUExampleScenario2.node[10].nic.mac1609_4 	TotalLostPackets 	0
scalar RSUExampleScenario2.node[10].nic.mac1609_4 	delayMedio 	0.005085861614
scalar RSUExampleScenario2.node[10].nic.mac1609_4 	throughputMedioBPS 	805369.92756288
scalar RSUExampleScenario2.node[13].nic.mac1609_4 	TotalLostPackets 	0
scalar RSUExampleScenario2.node[13].nic.mac1609_4 	delayMedio 	0.005330788188
scalar RSUExampleScenario2.node[13].nic.mac1609_4 	throughputMedioBPS 	768366.67596107
scalar RSUExampleScenario2.node[16].nic.mac1609_4 	TotalLostPackets 	0
scalar RSUExampleScenario2.node[16].nic.mac1609_4 	delayMedio 	0.003227440586
scalar RSUExampleScenario2.node[16].nic.mac1609_4 	throughputMedioBPS 	1269117.0884365
