version 2
run v1-298-20171205-05:59:53-5821
attr configname v1
attr cwmax 2048
attr cwmin 256
attr datetime 20171205-05:59:53
attr experiment v1
attr inifile omnetpp.ini
attr iterationvars "$cwmin=256, $cwmax=2048, $slotlength=15, $txPower=1584.89"
attr iterationvars2 "$cwmin=256, $cwmax=2048, $slotlength=15, $txPower=1584.89, $repetition=0"
attr measurement "$cwmin=256, $cwmax=2048, $slotlength=15, $txPower=1584.89"
attr network RSUExampleScenario2
attr processid 5821
attr repetition 0
attr replication #0
attr resultdir results
attr runnumber 298
attr seedset 298
attr slotlength 15
attr txPower 1584.89
param **.coreDebug true
param **.debug true
param *.**.nic.mac1609_4.bitrate 6Mbps
param *.**.nic.mac1609_4.cwmax_ "${cwmax=1024, 2048, 4096}"
param *.**.nic.mac1609_4.cwmin_ "${cwmin=256, 512}"
param *.**.nic.mac1609_4.slotlength_ "${slotlength=5..100 step 5}ms"
param *.**.nic.mac1609_4.txPower "${txPower=1.26, 2.51, 3.98, 10, 15.85, 25.12, 50.12, 100, 251.19, 501.19, 794.33, 1258.93, 1584.89}mW"
param *.**.nic.mac1609_4.useServiceChannel false
param *.**.nic.phy80211p.analogueModels "xmldoc(\"config.xml\")"
param *.**.nic.phy80211p.decider "xmldoc(\"config.xml\")"
param *.**.nic.phy80211p.sensitivity -89dBm
param *.**.nic.phy80211p.thermalNoise -110dBm
param *.**.nic.phy80211p.usePropagationDelay true
param *.**.nic.phy80211p.useThermalNoise true
param *.annotations.draw false
param *.connectionManager.alpha 2.0
param *.connectionManager.carrierFrequency "5.890e9 Hz"
param *.connectionManager.drawMaxIntfDist false
param *.connectionManager.maxInterfDist 2600m
param *.connectionManager.pMax 20mW
param *.connectionManager.sat -89dBm
param *.connectionManager.sendDirect true
param *.manager.autoShutdown true
param *.manager.host "\"localhost\""
param *.manager.launchConfig "xmldoc(\"osm.launchd.xml\")"
param *.manager.margin 25
param *.manager.moduleDisplayString "\"\""
param *.manager.moduleName "\"node\""
param *.manager.moduleType "\"org.car2x.veins.nodes.Car\""
param *.manager.port 9999
param *.manager.updateInterval 1s
param *.node[*].appl.beaconInterval "0.1 s"
param *.node[*].appl.beaconLengthBits "3960 bit"
param *.node[*].appl.beaconPriority 3
param *.node[*].appl.dataLengthBits "3960 bit"
param *.node[*].appl.dataOnSch false
param *.node[*].appl.dataPriority 2
param *.node[*].appl.debug false
param *.node[*].appl.headerLength "80 bit"
param *.node[*].appl.maxOffset "0.005 s"
param *.node[*].appl.sendBeacons true
param *.node[*].appl.sendData false
param *.node[*].applType "\"TraCIDemo11p\""
param *.node[*].mobilityType "\"TraCIMobility\""
param *.node[*].mobilityType.debug true
param *.node[*].veinsmobility.x 0
param *.node[*].veinsmobility.y 0
param *.node[*].veinsmobility.z 1.895
param *.node[*].veinsmobilityType "\"org.car2x.veins.modules.mobility.traci.TraCIMobility\""
param *.node[*].veinsmobilityType.debug true
param *.obstacles.debug false
param *.playgroundSizeX 2000m
param *.playgroundSizeY 2000m
param *.playgroundSizeZ 50m
param *.world.use2D false
param *.world.useTorus false

scalar . 	cwmax 	2048
scalar . 	cwmin 	256
scalar . 	slotlength 	15
scalar . 	txPower 	1584.89
scalar RSUExampleScenario2.node[6].nic.mac1609_4 	TotalLostPackets 	0
scalar RSUExampleScenario2.node[6].nic.mac1609_4 	delayMedio 	0.000723258704
scalar RSUExampleScenario2.node[6].nic.mac1609_4 	throughputMedioBPS 	5663257.1164012
scalar RSUExampleScenario2.node[5].nic.mac1609_4 	TotalLostPackets 	0
scalar RSUExampleScenario2.node[5].nic.mac1609_4 	delayMedio 	0.005665849299
scalar RSUExampleScenario2.node[5].nic.mac1609_4 	throughputMedioBPS 	722927.8054825
scalar RSUExampleScenario2.node[0].nic.mac1609_4 	TotalLostPackets 	20
scalar RSUExampleScenario2.node[0].nic.mac1609_4 	delayMedio 	0.005519777839
scalar RSUExampleScenario2.node[0].nic.mac1609_4 	throughputMedioBPS 	742058.8507601
scalar RSUExampleScenario2.node[14].nic.mac1609_4 	TotalLostPackets 	237
scalar RSUExampleScenario2.node[14].nic.mac1609_4 	delayMedio 	0.006814241745
scalar RSUExampleScenario2.node[14].nic.mac1609_4 	throughputMedioBPS 	601094.02532504
scalar RSUExampleScenario2.node[7].nic.mac1609_4 	TotalLostPackets 	405
scalar RSUExampleScenario2.node[7].nic.mac1609_4 	delayMedio 	0.005799644093
scalar RSUExampleScenario2.node[7].nic.mac1609_4 	throughputMedioBPS 	706250.23442823
scalar RSUExampleScenario2.node[2].nic.mac1609_4 	TotalLostPackets 	502
scalar RSUExampleScenario2.node[2].nic.mac1609_4 	delayMedio 	0.005547885156
scalar RSUExampleScenario2.node[2].nic.mac1609_4 	throughputMedioBPS 	738299.34912835
scalar RSUExampleScenario2.node[8].nic.mac1609_4 	TotalLostPackets 	502
scalar RSUExampleScenario2.node[8].nic.mac1609_4 	delayMedio 	0.005727456908
scalar RSUExampleScenario2.node[8].nic.mac1609_4 	throughputMedioBPS 	715151.60492083
scalar RSUExampleScenario2.node[3].nic.mac1609_4 	TotalLostPackets 	662
scalar RSUExampleScenario2.node[3].nic.mac1609_4 	delayMedio 	0.004962720336
scalar RSUExampleScenario2.node[3].nic.mac1609_4 	throughputMedioBPS 	825353.78234556
scalar RSUExampleScenario2.node[11].nic.mac1609_4 	TotalLostPackets 	551
scalar RSUExampleScenario2.node[11].nic.mac1609_4 	delayMedio 	0.005420282199
scalar RSUExampleScenario2.node[11].nic.mac1609_4 	throughputMedioBPS 	755680.2117145
scalar RSUExampleScenario2.node[17].nic.mac1609_4 	TotalLostPackets 	331
scalar RSUExampleScenario2.node[17].nic.mac1609_4 	delayMedio 	0.003014334242
scalar RSUExampleScenario2.node[17].nic.mac1609_4 	throughputMedioBPS 	1358840.6829538
scalar RSUExampleScenario2.node[27].nic.mac1609_4 	TotalLostPackets 	462
scalar RSUExampleScenario2.node[27].nic.mac1609_4 	delayMedio 	0.005443175895
scalar RSUExampleScenario2.node[27].nic.mac1609_4 	throughputMedioBPS 	752501.86271604
scalar RSUExampleScenario2.node[12].nic.mac1609_4 	TotalLostPackets 	542
scalar RSUExampleScenario2.node[12].nic.mac1609_4 	delayMedio 	0.005396918015
scalar RSUExampleScenario2.node[12].nic.mac1609_4 	throughputMedioBPS 	758951.68099737
scalar RSUExampleScenario2.node[18].nic.mac1609_4 	TotalLostPackets 	662
scalar RSUExampleScenario2.node[18].nic.mac1609_4 	delayMedio 	0.003076822928
scalar RSUExampleScenario2.node[18].nic.mac1609_4 	throughputMedioBPS 	1331243.3297209
scalar RSUExampleScenario2.node[22].nic.mac1609_4 	TotalLostPackets 	588
scalar RSUExampleScenario2.node[22].nic.mac1609_4 	delayMedio 	0.003809654503
scalar RSUExampleScenario2.node[22].nic.mac1609_4 	throughputMedioBPS 	1075163.1144637
scalar RSUExampleScenario2.node[28].nic.mac1609_4 	TotalLostPackets 	382
scalar RSUExampleScenario2.node[28].nic.mac1609_4 	delayMedio 	0.005390353621
scalar RSUExampleScenario2.node[28].nic.mac1609_4 	throughputMedioBPS 	759875.93547914
scalar RSUExampleScenario2.node[33].nic.mac1609_4 	TotalLostPackets 	103
scalar RSUExampleScenario2.node[33].nic.mac1609_4 	delayMedio 	0.000805707142
scalar RSUExampleScenario2.node[33].nic.mac1609_4 	throughputMedioBPS 	5083733.0156869
scalar RSUExampleScenario2.node[1].nic.mac1609_4 	TotalLostPackets 	662
scalar RSUExampleScenario2.node[1].nic.mac1609_4 	delayMedio 	0.004933243306
scalar RSUExampleScenario2.node[1].nic.mac1609_4 	throughputMedioBPS 	830285.42201525
scalar RSUExampleScenario2.node[29].nic.mac1609_4 	TotalLostPackets 	286
scalar RSUExampleScenario2.node[29].nic.mac1609_4 	delayMedio 	0.005321387502
scalar RSUExampleScenario2.node[29].nic.mac1609_4 	throughputMedioBPS 	769724.06130903
scalar RSUExampleScenario2.node[34].nic.mac1609_4 	TotalLostPackets 	80
scalar RSUExampleScenario2.node[34].nic.mac1609_4 	delayMedio 	0.000796557259
scalar RSUExampleScenario2.node[34].nic.mac1609_4 	throughputMedioBPS 	5142128.7693375
scalar RSUExampleScenario2.node[9].nic.mac1609_4 	TotalLostPackets 	332
scalar RSUExampleScenario2.node[9].nic.mac1609_4 	delayMedio 	0.005145681486
scalar RSUExampleScenario2.node[9].nic.mac1609_4 	throughputMedioBPS 	796007.2948518
scalar RSUExampleScenario2.node[15].nic.mac1609_4 	TotalLostPackets 	332
scalar RSUExampleScenario2.node[15].nic.mac1609_4 	delayMedio 	0.005499964239
scalar RSUExampleScenario2.node[15].nic.mac1609_4 	throughputMedioBPS 	744732.11503257
scalar RSUExampleScenario2.node[20].nic.mac1609_4 	TotalLostPackets 	406
scalar RSUExampleScenario2.node[20].nic.mac1609_4 	delayMedio 	0.003514230173
scalar RSUExampleScenario2.node[20].nic.mac1609_4 	throughputMedioBPS 	1165546.8761288
scalar RSUExampleScenario2.node[23].nic.mac1609_4 	TotalLostPackets 	662
scalar RSUExampleScenario2.node[23].nic.mac1609_4 	delayMedio 	0.003829893012
scalar RSUExampleScenario2.node[23].nic.mac1609_4 	throughputMedioBPS 	1069481.5721585
scalar RSUExampleScenario2.node[25].nic.mac1609_4 	TotalLostPackets 	384
scalar RSUExampleScenario2.node[25].nic.mac1609_4 	delayMedio 	0.004310459441
scalar RSUExampleScenario2.node[25].nic.mac1609_4 	throughputMedioBPS 	950246.73270029
scalar RSUExampleScenario2.node[4].nic.mac1609_4 	TotalLostPackets 	662
scalar RSUExampleScenario2.node[4].nic.mac1609_4 	delayMedio 	0.004990884404
scalar RSUExampleScenario2.node[4].nic.mac1609_4 	throughputMedioBPS 	820696.2270718
scalar RSUExampleScenario2.node[19].nic.mac1609_4 	TotalLostPackets 	493
scalar RSUExampleScenario2.node[19].nic.mac1609_4 	delayMedio 	0.003253616169
scalar RSUExampleScenario2.node[19].nic.mac1609_4 	throughputMedioBPS 	1258906.9474891
scalar RSUExampleScenario2.node[21].nic.mac1609_4 	TotalLostPackets 	333
scalar RSUExampleScenario2.node[21].nic.mac1609_4 	delayMedio 	0.003444392997
scalar RSUExampleScenario2.node[21].nic.mac1609_4 	throughputMedioBPS 	1189179.0522661
scalar RSUExampleScenario2.node[24].nic.mac1609_4 	TotalLostPackets 	409
scalar RSUExampleScenario2.node[24].nic.mac1609_4 	delayMedio 	0.004133924884
scalar RSUExampleScenario2.node[24].nic.mac1609_4 	throughputMedioBPS 	990825.93784472
scalar RSUExampleScenario2.node[26].nic.mac1609_4 	TotalLostPackets 	562
scalar RSUExampleScenario2.node[26].nic.mac1609_4 	delayMedio 	0.004748171441
scalar RSUExampleScenario2.node[26].nic.mac1609_4 	throughputMedioBPS 	862647.87416949
scalar RSUExampleScenario2.node[30].nic.mac1609_4 	TotalLostPackets 	291
scalar RSUExampleScenario2.node[30].nic.mac1609_4 	delayMedio 	0.005313640076
scalar RSUExampleScenario2.node[30].nic.mac1609_4 	throughputMedioBPS 	770846.33917917
scalar RSUExampleScenario2.node[31].nic.mac1609_4 	TotalLostPackets 	255
scalar RSUExampleScenario2.node[31].nic.mac1609_4 	delayMedio 	0.006589132033
scalar RSUExampleScenario2.node[31].nic.mac1609_4 	throughputMedioBPS 	621629.67436175
scalar RSUExampleScenario2.node[32].nic.mac1609_4 	TotalLostPackets 	260
scalar RSUExampleScenario2.node[32].nic.mac1609_4 	delayMedio 	0.000797481477
scalar RSUExampleScenario2.node[32].nic.mac1609_4 	throughputMedioBPS 	5136169.4522655
scalar RSUExampleScenario2.node[35].nic.mac1609_4 	TotalLostPackets 	60
scalar RSUExampleScenario2.node[35].nic.mac1609_4 	delayMedio 	0.000795436822
scalar RSUExampleScenario2.node[35].nic.mac1609_4 	throughputMedioBPS 	5149371.8762345
scalar RSUExampleScenario2.node[10].nic.mac1609_4 	TotalLostPackets 	421
scalar RSUExampleScenario2.node[10].nic.mac1609_4 	delayMedio 	0.005253510744
scalar RSUExampleScenario2.node[10].nic.mac1609_4 	throughputMedioBPS 	779669.10123278
scalar RSUExampleScenario2.node[13].nic.mac1609_4 	TotalLostPackets 	544
scalar RSUExampleScenario2.node[13].nic.mac1609_4 	delayMedio 	0.005567866889
scalar RSUExampleScenario2.node[13].nic.mac1609_4 	throughputMedioBPS 	735649.77067464
scalar RSUExampleScenario2.node[16].nic.mac1609_4 	TotalLostPackets 	331
scalar RSUExampleScenario2.node[16].nic.mac1609_4 	delayMedio 	0.003377008668
scalar RSUExampleScenario2.node[16].nic.mac1609_4 	throughputMedioBPS 	1212907.7543246
